@<TRIPOS>MOLECULE
mol
37500 30000
SMALL
USER_CHARGES


@<TRIPOS>ATOM
1 C 41.638335812126115 45.05183352529794 27.95024772740834 C 0.0 **** -0.24
2 H 40.94647262378879 45.86043842415877 28.185071042669335 H 0.0 **** 0.06
3 H 41.22529928003215 44.10653369792012 28.301610221196114 H 0.0 **** 0.06
4 H 42.59313309960734 45.2370063865091 28.4420441306562 H 0.0 **** 0.06
5 H 41.788029137567804 45.004440412152576 26.871455629496637 H 0.0 **** 0.06
6 C 51.513275627715245 15.973351170367977 16.51784204346782 C 0.0 **** -0.24
7 H 50.48412419413452 15.778738532593138 16.216862328723053 H 0.0 **** 0.06
8 H 51.565314217056596 16.928398407367524 17.04178898946398 H 0.0 **** 0.06
9 H 52.14955931406942 16.00970758282864 15.633092982340344 H 0.0 **** 0.06
10 H 51.85494200599558 15.176533599882703 17.179077599421355 H 0.0 **** 0.06
11 C 33.002491926188895 55.75111259737599 31.651909627080585 C 0.0 **** -0.24
12 H 32.33089228561039 56.249195269058646 32.350946196618196 H 0.0 **** 0.06
13 H 32.65154883240555 54.7338689401862 31.473727278667724 H 0.0 **** 0.06
14 H 34.007164321974955 55.71930452687309 32.073516309504356 H 0.0 **** 0.06
15 H 33.0197719482054 56.300289732700946 30.71064907323526 H 0.0 **** 0.06
16 C 107.40252740740104 26.306359499403158 30.95669940770852 C 0.0 **** -0.24
17 H 107.40377747360589 26.883903834088557 31.88103946412501 H 0.0 **** 0.06
18 H 106.55253505933186 26.604652203276174 30.342821526931495 H 0.0 **** 0.06
19 H 107.32721565470791 25.244380611087678 31.192469647325737 H 0.0 **** 0.06
20 H 108.32806991810347 26.492616210423165 30.411345298395574 H 0.0 **** 0.06
21 C 15.353201055215806 73.6981006324647 47.739883742213735 C 0.0 **** -0.24
22 H 15.251365704654376 73.21529520953092 46.76811368866528 H 0.0 **** 0.06
23 H 14.4375532457141 73.55540307744499 48.314733402329196 H 0.0 **** 0.06
24 H 15.531815897833837 74.76357215247157 47.599097805432876 H 0.0 **** 0.06
25 H 16.192022187747426 73.25680910265405 48.27808766070453 H 0.0 **** 0.06
26 C 43.514119490403516 2.9947026066726057 71.69815468533346 C 0.0 **** -0.24
27 H 42.81739140165797 3.073353158542602 72.53380277927369 H 0.0 **** 0.06
28 H 43.51244930838567 3.92857576327161 71.13556803624766 H 0.0 **** 0.06
29 H 43.208648123269086 2.1766717273041145 71.04698097540847 H 0.0 **** 0.06
30 H 44.51613318440212 2.801281500644631 72.07992863525533 H 0.0 **** 0.06
31 C 48.31669459290683 89.65396163089429 117.05910229083972 C 0.0 **** -0.24
32 H 48.5348710057315 89.12974832532518 117.98993529207122 H 0.0 **** 0.06
33 H 47.94185221325196 90.65235180763068 117.28381498758178 H 0.0 **** 0.06
34 H 47.56463031568333 89.10004505008703 116.49781691212554 H 0.0 **** 0.06
35 H 49.228198500568766 89.73297190624987 116.46572245033424 H 0.0 **** 0.06
36 C 109.08636089500871 64.85888710973293 52.369459850840144 C 0.0 **** -0.24
37 H 108.47623043047909 65.56331494629816 52.93504965289492 H 0.0 **** 0.06
38 H 108.50017944423834 64.44978992122284 51.546575675122256 H 0.0 **** 0.06
39 H 109.40793112910336 64.0491181962058 53.025119453325345 H 0.0 **** 0.06
40 H 109.96152794111482 65.37404649686746 51.97261094122078 H 0.0 **** 0.06
41 C 98.78007902616713 71.29026374436202 92.61749568040597 C 0.0 **** -0.24
42 H 99.78622519291298 71.63177692256968 92.8569974658842 H 0.0 **** 0.06
43 H 98.26647316732559 70.99745044064 93.53342579837437 H 0.0 **** 0.06
44 H 98.83726203535173 70.43551448810118 91.94291401013757 H 0.0 **** 0.06
45 H 98.22885985600087 72.0971849502115 92.13419537102908 H 0.0 **** 0.06
46 C 66.74809271540767 8.29085152917824 114.31016256319947 C 0.0 **** -0.24
47 H 67.18317910443483 9.113210914741785 113.74176967435851 H 0.0 **** 0.06
48 H 67.45427733082437 7.964197093180729 115.07361180612389 H 0.0 **** 0.06
49 H 66.5293667568209 7.461492951701899 113.63781008667668 H 0.0 **** 0.06
50 H 65.82685073838306 8.625706904954654 114.78576807479229 H 0.0 **** 0.06
51 C 89.64557697004886 92.44122212473494 106.51912202861308 C 0.0 **** -0.24
52 H 90.3177767559095 91.67106123574823 106.89751101714583 H 0.0 **** 0.06
53 H 89.93875682516514 93.4092984248482 106.92452476952928 H 0.0 **** 0.06
54 H 88.62380784555378 92.21236406663144 106.82484006392755 H 0.0 **** 0.06
55 H 89.70130850543353 92.46917377369871 105.430885715568 H 0.0 **** 0.06
56 C 113.38689793836113 6.88577328821296 17.32740378922801 C 0.0 **** -0.24
57 H 113.23790881668732 6.987057189072047 16.251811182498237 H 0.0 **** 0.06
58 H 114.28149779013035 6.292004954996912 17.515065292941486 H 0.0 **** 0.06
59 H 112.52167830597179 6.390961386006566 17.76782142957396 H 0.0 **** 0.06
60 H 113.50589998602726 7.874300440813357 17.770902545374938 H 0.0 **** 0.06
61 C 14.313736785827832 23.579058252349498 51.21507061027942 C 0.0 **** -0.24
62 H 13.749374681849591 23.230228418521442 50.350140703950345 H 0.0 **** 0.06
63 H 14.82367311698414 22.73608457550317 51.67976814480002 H 0.0 **** 0.06
64 H 13.63178957523753 24.033428933435175 51.93348401999459 H 0.0 **** 0.06
65 H 15.048768287053381 24.317531215123815 50.89386976257752 H 0.0 **** 0.06
66 C 116.80506638069937 96.19110958250417 59.99102852398287 C 0.0 **** -0.24
67 H 116.82625490836585 96.16541998345056 61.08081919107746 H 0.0 **** 0.06
68 H 116.69830704923294 97.22323317960453 59.65473253468911 H 0.0 **** 0.06
69 H 115.96224497552629 95.60141302924572 59.63013984774525 H 0.0 **** 0.06
70 H 117.73401503352079 95.77607190842392 59.60061378193172 H 0.0 **** 0.06
71 C 8.738988558332835 67.03190917628368 14.983173826065752 C 0.0 **** -0.24
72 H 8.457698578265308 67.83239537553698 15.667507346877215 H 0.0 **** 0.06
73 H 9.799072130102843 67.11540064905677 14.743752519176297 H 0.0 **** 0.06
74 H 8.15173621068783 67.11225037288963 14.06856214570709 H 0.0 **** 0.06
75 H 8.54803475705512 66.06773731362952 15.454151344668787 H 0.0 **** 0.06
76 C 57.02518474211749 73.66384690540656 45.377654706184 C 0.0 **** -0.24
77 H 56.40473773332545 74.38305466488072 44.841719676938624 H 0.0 **** 0.06
78 H 56.4341174555955 73.18333546432638 46.15713836350574 H 0.0 **** 0.06
79 H 57.872112480973925 74.18109534117232 45.82971785881719 H 0.0 **** 0.06
80 H 57.390114697743854 72.90950668896559 44.68052377159435 H 0.0 **** 0.06
81 C 38.76476657196196 66.20570149340989 116.90982723853753 C 0.0 **** -0.24
82 H 39.8429569143089 66.2608465554523 116.75354772703648 H 0.0 **** 0.06
83 H 38.514135653828674 66.64867110693592 117.87341459865084 H 0.0 **** 0.06
84 H 38.44990921870918 65.162308068176 116.89464262176153 H 0.0 **** 0.06
85 H 38.25519621677162 66.75040669109273 116.11489964429524 H 0.0 **** 0.06
86 C 47.47195856277623 78.18782396277436 96.80511788397936 C 0.0 **** -0.24
87 H 48.215153832611854 78.2828061713378 97.596366707751 H 0.0 **** 0.06
88 H 47.70470408047245 78.8885089323683 96.00277088127444 H 0.0 **** 0.06
89 H 46.48352890264709 78.41030261659748 97.20793380067545 H 0.0 **** 0.06
90 H 47.484072537391995 77.17009171146631 96.41503983466413 H 0.0 **** 0.06
91 C 26.421967011952233 25.56919447636045 17.402997256268662 C 0.0 **** -0.24
92 H 26.338356267559135 25.41568768993966 18.47899655574159 H 0.0 **** 0.06
93 H 26.987897549460484 26.481463304925626 17.20936902565134 H 0.0 **** 0.06
94 H 25.42591064783818 25.66087336774109 16.97068575974498 H 0.0 **** 0.06
95 H 26.936877307634575 24.720832196266713 16.953487157892795 H 0.0 **** 0.06
96 C 33.40905009388623 12.419378474987639 103.40375013449065 C 0.0 **** -0.24
97 H 33.05722735996529 12.173229091068492 104.4064200245221 H 0.0 **** 0.06
98 H 32.74341925131879 13.158137717694132 102.95716538147164 H 0.0 **** 0.06
99 H 33.417211032705545 11.518192278983662 102.79043420979346 H 0.0 **** 0.06
100 H 34.41767968845326 12.82706460294267 103.4641063894139 H 0.0 **** 0.06
101 C 59.337695175199514 91.34114353844421 18.84672460930284 C 0.0 **** -0.24
102 H 60.162740272008335 91.43158996355186 18.140954436663833 H 0.0 **** 0.06
103 H 58.480930757196546 91.90524041883856 18.47879529177851 H 0.0 **** 0.06
104 H 59.64472716874363 91.73575728973964 19.815844299868274 H 0.0 **** 0.06
105 H 59.06440253295369 90.2913912341316 18.95205637403575 H 0.0 **** 0.06
106 C 76.35781748590199 51.19580425690438 45.75608573163282 C 0.0 **** -0.24
107 H 76.82026430765833 51.16697830812166 46.7433479285383 H 0.0 **** 0.06
108 H 76.81830235630741 50.44200375160061 45.11741754326022 H 0.0 **** 0.06
109 H 76.5011275518336 52.18218042744624 45.317191977564846 H 0.0 **** 0.06
110 H 75.29066238991581 50.9913410929484 45.84915266591884 H 0.0 **** 0.06
111 C 20.643617600662395 91.77257785816914 89.18099998255508 C 0.0 **** -0.24
112 H 19.64175133514138 92.1075443506723 88.91175469772307 H 0.0 **** 0.06
113 H 20.57117575539226 90.9456966901869 89.88757007057609 H 0.0 **** 0.06
114 H 21.191131788341423 92.59592680494572 89.63947602562254 H 0.0 **** 0.06
115 H 21.16852194197952 91.43994846817117 88.28516086459356 H 0.0 **** 0.06
116 C 21.08049462160706 70.43234042605332 70.86802928013884 C 0.0 **** -0.24
117 H 20.8043816034413 69.54041271775833 71.43036559173254 H 0.0 **** 0.06
118 H 20.460505878473786 70.50409569450608 69.97323442574378 H 0.0 **** 0.06
119 H 22.12936501493987 70.36852589190693 70.57865380967877 H 0.0 **** 0.06
120 H 20.927182144548013 71.315356521978 71.48768109732197 H 0.0 **** 0.06
121 C 115.47150850407729 71.37690754707876 50.82825257268894 C 0.0 **** -0.24
122 H 114.98177434463818 72.20906538831639 50.32231150765796 H 0.0 **** 0.06
123 H 116.13654333432726 70.8680400179353 50.12977555857498 H 0.0 **** 0.06
124 H 114.71752058792472 70.6761108913405 51.187921712248055 H 0.0 **** 0.06
125 H 116.04960002307448 71.75337968490112 51.67224279918196 H 0.0 **** 0.06
126 C 31.203379373287532 98.43857608398332 59.42409612664529 C 0.0 **** -0.24
127 H 30.748352781236974 97.6855119984524 60.06789957814801 H 0.0 **** 0.06
128 H 31.552768203947807 97.96713191001686 58.505092616455165 H 0.0 **** 0.06
129 H 32.04618467091237 98.89756903081434 59.94047219809931 H 0.0 **** 0.06
130 H 30.464357124628435 99.20321704094988 59.18202801706567 H 0.0 **** 0.06
131 C 45.63490727723634 87.44386599690307 80.81085260443521 C 0.0 **** -0.24
132 H 45.44074065112981 88.49116743746958 80.57883191774917 H 0.0 **** 0.06
133 H 45.042675159308736 86.81011455324696 80.15045059105293 H 0.0 **** 0.06
134 H 45.36191034688657 87.24480736899824 81.84732350451026 H 0.0 **** 0.06
135 H 46.69413274704515 87.23033443644024 80.66658111868793 H 0.0 **** 0.06
136 C 50.54300412822403 41.70501245280971 66.67775850042534 C 0.0 **** -0.24
137 H 51.3821974407966 42.261045122275505 66.26187182962093 H 0.0 **** 0.06
138 H 50.46158538283545 40.74003446352182 66.17568864300785 H 0.0 **** 0.06
139 H 49.62311946863991 42.270287824906404 66.53054948394933 H 0.0 **** 0.06
140 H 50.70528091334418 41.54659884603515 67.74371859340678 H 0.0 **** 0.06
141 C 85.05764812192908 39.9960413748976 51.75964335490676 C 0.0 **** -0.24
142 H 84.65507058497099 39.069026866195685 51.35138118837568 H 0.0 **** 0.06
143 H 85.1673678251014 39.8994590241804 52.840222856439595 H 0.0 **** 0.06
144 H 84.37877451667782 40.817460882176846 51.53445879666661 H 0.0 **** 0.06
145 H 86.03162336682868 40.19658661286027 51.31196102648113 H 0.0 **** 0.06
146 C 15.47834971779524 8.178003853202995 86.21583010809931 C 0.0 **** -0.24
147 H 15.985082118984195 7.734423555682383 85.35900904280663 H 0.0 **** 0.06
148 H 15.883206106510187 7.7541554265175705 87.13576406570965 H 0.0 **** 0.06
149 H 14.411168580431593 7.965869935368886 86.15698161187348 H 0.0 **** 0.06
150 H 15.635904576567668 9.256182264390304 86.21204821137985 H 0.0 **** 0.06
151 C 112.81598901596672 111.69022432771226 43.872949095793615 C 0.0 **** -0.24
152 H 112.60646577363102 112.32330297644063 43.0113256600616 H 0.0 **** 0.06
153 H 113.39818059023219 112.25277289910476 44.6040631445195 H 0.0 **** 0.06
154 H 113.38281559668138 110.81605593403985 43.55233745372648 H 0.0 **** 0.06
155 H 111.87761272239811 111.3694236398697 44.32521717352043 H 0.0 **** 0.06
156 C 72.64338751838528 62.81356662547859 96.64718276950339 C 0.0 **** -0.24
157 H 71.57373427192141 62.7968200124696 96.85385399832197 H 0.0 **** 0.06
158 H 72.8669224275713 63.62690701046716 95.95614500954923 H 0.0 **** 0.06
159 H 72.9426879414329 61.8647587062894 96.20212395732722 H 0.0 **** 0.06
160 H 73.1899843338054 62.966686948271295 97.57767116419959 H 0.0 **** 0.06
161 C 5.871600435185655 43.08902741232038 97.03939145342275 C 0.0 **** -0.24
162 H 6.40635844143921 44.023277079000636 97.20603452669548 H 0.0 **** 0.06
163 H 6.097643430168262 42.39132528829942 97.84631643941228 H 0.0 **** 0.06
164 H 6.182851985215393 42.65807677249499 96.08741738252155 H 0.0 **** 0.06
165 H 4.799029190357089 43.282516076993 97.01642089473012 H 0.0 **** 0.06
166 C 18.964159095247425 62.80411408225755 11.690328187561395 C 0.0 **** -0.24
167 H 18.95278792052332 62.972039826197495 12.767830058796203 H 0.0 **** 0.06
168 H 18.8720014492458 63.760395217339756 11.17434369860214 H 0.0 **** 0.06
169 H 18.13039637636112 62.15997718709803 11.414315778490199 H 0.0 **** 0.06
170 H 19.90178068780037 62.32681824971561 11.407312384765092 H 0.0 **** 0.06
171 C 40.2741058959778 37.95791113431474 65.60975523240381 C 0.0 **** -0.24
172 H 39.825497336710825 38.72280582123234 66.2435927868467 H 0.0 **** 0.06
173 H 41.29763012231314 37.77050773192413 65.9346639933485 H 0.0 **** 0.06
174 H 40.27821039450163 38.29970895253825 64.57482723345751 H 0.0 **** 0.06
175 H 39.69510046794478 37.0372985733126 65.68643527143504 H 0.0 **** 0.06
176 C 0.7300781383132744 50.88533931438291 68.09185454460501 C 0.0 **** -0.24
177 H -0.2301813862139852 50.61009132715262 68.52940549140715 H 0.0 **** 0.06
178 H 1.0866482377055888 51.808024718460544 68.55004336766967 H 0.0 **** 0.06
179 H 0.6093729652907882 51.03649976993989 67.01916617151483 H 0.0 **** 0.06
180 H 1.45133426396373 50.088467932733266 68.26839085999615 H 0.0 **** 0.06
181 C 91.21524098682781 23.91655069486786 103.0962237861321 C 0.0 **** -0.24
182 H 91.91105738692377 23.935290356728316 102.25650417714269 H 0.0 **** 0.06
183 H 91.76884756147203 23.766956866014603 104.02347782288027 H 0.0 **** 0.06
184 H 90.50525708930769 23.10090119618284 102.96086757020464 H 0.0 **** 0.06
185 H 90.67729729155312 24.863006909517303 103.14238368560723 H 0.0 **** 0.06
186 C 14.668603536043804 41.58619034599022 72.17042975170685 C 0.0 **** -0.24
187 H 13.953660082814224 40.76442277349196 72.22495095643839 H 0.0 **** 0.06
188 H 15.67008828915641 41.18520674371743 72.01020775888193 H 0.0 **** 0.06
189 H 14.647660506559816 42.148433947149016 73.10328290936837 H 0.0 **** 0.06
190 H 14.4033728030374 42.24427612378696 71.34329052148806 H 0.0 **** 0.06
191 C 74.60313703666321 109.85456903242044 71.4102987281504 C 0.0 **** -0.24
192 H 74.17162782663215 110.64976929926117 72.01785768106404 H 0.0 **** 0.06
193 H 75.68755071675318 109.85676850426164 71.52781383137719 H 0.0 **** 0.06
194 H 74.3495724164832 110.0183457591994 70.36297321481496 H 0.0 **** 0.06
195 H 74.20467562434945 108.89269776932596 71.7347287066427 H 0.0 **** 0.06
196 C 49.619980467748945 69.04200809933064 31.755776979280114 C 0.0 **** -0.24
197 H 50.41155813331187 69.75037147955021 31.510025622995798 H 0.0 **** 0.06
198 H 48.77519162470912 69.57811536489137 32.18983741380504 H 0.0 **** 0.06
199 H 49.996272047134596 68.31313791037059 32.47500474793628 H 0.0 **** 0.06
200 H 49.29950912431218 68.52700926616777 30.85085388116285 H 0.0 **** 0.06
201 C 108.51479569710199 67.53565704118034 57.96700787040509 C 0.0 **** -0.24
202 H 108.72091243911956 68.5734952562388 58.22854618677248 H 0.0 **** 0.06
203 H 108.24141338961383 67.47443243189642 56.91357812137705 H 0.0 **** 0.06
204 H 107.69272987072361 67.16337219639308 58.57833621191971 H 0.0 **** 0.06
205 H 109.40491439907557 66.93235478945152 58.14814239713565 H 0.0 **** 0.06
206 C 56.99606157500463 28.38328474418188 103.63846822995728 C 0.0 **** -0.24
207 H 57.52730299442675 29.03291277138868 102.94225806127596 H 0.0 **** 0.06
208 H 57.50308594785895 27.42068299957066 103.69594579141136 H 0.0 **** 0.06
209 H 55.97383797396594 28.236176444347166 103.28903345632116 H 0.0 **** 0.06
210 H 56.97962189543833 28.84653926847392 104.62496888850285 H 0.0 **** 0.06
211 C 86.35815931823771 54.98372723916734 44.4882496252722 C 0.0 **** -0.24
212 H 85.36475800411705 54.54129796395682 44.4128258553165 H 0.0 **** 0.06
213 H 87.10075545660828 54.27131269293747 44.129996902322176 H 0.0 **** 0.06
214 H 86.56603999789871 55.23437065666877 45.528402527901704 H 0.0 **** 0.06
215 H 86.40038160741489 55.888630431524376 43.881887462871475 H 0.0 **** 0.06
216 C 32.68496270054084 39.72719131296536 8.62101340385422 C 0.0 **** -0.24
217 H 31.87769860858066 38.9950240406078 8.62371891584732 H 0.0 **** 0.06
218 H 33.24595476283844 39.653789175647276 9.552771211151907 H 0.0 **** 0.06
219 H 32.26610607667493 40.72949089107503 8.52559687014994 H 0.0 **** 0.06
220 H 33.35044859170648 39.53049949390484 7.779543549563442 H 0.0 **** 0.06
221 C 54.796011245851865 58.4692136476292 101.37082827891015 C 0.0 **** -0.24
222 H 54.7300821630512 58.87470021543962 102.3803640922452 H 0.0 **** 0.06
223 H 53.80828549454051 58.140027289924745 101.0469196544461 H 0.0 **** 0.06
224 H 55.48203280325823 57.62192039724724 101.36396040196612 H 0.0 **** 0.06
225 H 55.163393368359316 59.239472064310746 100.69325106971127 H 0.0 **** 0.06
226 C 21.945404419683655 70.02501484650355 112.4070773417389 C 0.0 **** -0.24
227 H 21.567048308943612 69.09753105763019 112.83577652417966 H 0.0 **** 0.06
228 H 23.033370189995225 69.98358355365684 112.35447978705434 H 0.0 **** 0.06
229 H 21.64279542276384 70.86384638309977 113.03387716353416 H 0.0 **** 0.06
230 H 21.537169343525164 70.15511754817175 111.40486580046985 H 0.0 **** 0.06
231 C 48.75166387296943 3.041146248854872 93.2078708186587 C 0.0 **** -0.24
232 H 49.50817742469049 3.6015300148207814 93.75738684418633 H 0.0 **** 0.06
233 H 49.23228230953558 2.244238692576758 92.64008313467576 H 0.0 **** 0.06
234 H 48.229318509133876 3.7101996883472594 92.52403356778785 H 0.0 **** 0.06
235 H 48.038210767259955 2.6090844081214186 93.9100345015016 H 0.0 **** 0.06
236 C 2.3942770913770914 90.9083363663305 116.27476782139013 C 0.0 **** -0.24
237 H 3.3613460221090463 90.62996911635454 115.8588426043637 H 0.0 **** 0.06
238 H 1.6765229531072237 90.10716051650274 116.09446277589578 H 0.0 **** 0.06
239 H 2.043654869937612 91.82458950757754 115.79932294372551 H 0.0 **** 0.06
240 H 2.493873292072422 91.07223663724693 117.34808599777165 H 0.0 **** 0.06
241 C 82.64935118316623 99.65747878254678 58.645185410500744 C 0.0 **** -0.24
242 H 82.36010314311065 99.60907394369943 59.695364041879316 H 0.0 **** 0.06
243 H 82.52175415302264 100.67773655215615 58.28009803628936 H 0.0 **** 0.06
244 H 82.02248360636852 98.98218395267966 58.06458711155557 H 0.0 **** 0.06
245 H 83.69381099364685 99.36376850633175 58.543001664511735 H 0.0 **** 0.06
246 C 111.9794304406361 46.456207126584616 87.91507746852315 C 0.0 **** -0.24
247 H 111.62985275574991 45.847260757159745 87.08130331666797 H 0.0 **** 0.06
248 H 111.75928935106344 45.94748413485581 88.85368249497301 H 0.0 **** 0.06
249 H 111.47505014127546 47.42166415569977 87.89640302731294 H 0.0 **** 0.06
250 H 113.05598938793656 46.60721862184141 87.82769321572786 H 0.0 **** 0.06
251 C 49.76398406753344 55.759457805444185 113.50558287718377 C 0.0 **** -0.24
252 H 49.309672470474766 56.50438810892635 114.15809136411941 H 0.0 **** 0.06
253 H 49.36089313006326 54.775041119843024 113.74296030448026 H 0.0 **** 0.06
254 H 50.84450871196836 55.75604737680834 113.65594760421362 H 0.0 **** 0.06
255 H 49.54290451463777 56.00274946615761 112.46662545118603 H 0.0 **** 0.06
256 C 70.79476100455526 118.08292418136818 74.70112481472012 C 0.0 **** -0.24
257 H 70.73469679770832 119.1457278517799 74.93234577349628 H 0.0 **** 0.06
258 H 71.77133967907434 117.85937783154696 74.27149741764211 H 0.0 **** 0.06
259 H 70.0143695246692 117.82206302861209 73.98646395207999 H 0.0 **** 0.06
260 H 70.65865903341532 117.50369408214073 75.61474363655125 H 0.0 **** 0.06
261 C 101.98040595444633 54.60292626388867 25.96760053506506 C 0.0 **** -0.24
262 H 103.02464189017923 54.798703826844935 26.210246363774615 H 0.0 **** 0.06
263 H 101.91685154160058 54.13899928279627 24.983751404987856 H 0.0 **** 0.06
264 H 101.42609141588667 55.540490362314266 25.96407667824849 H 0.0 **** 0.06
265 H 101.55450500703097 53.93176990353387 26.713985918654714 H 0.0 **** 0.06
266 C 94.57667956376784 69.34546024894615 107.10803454564837 C 0.0 **** -0.24
267 H 95.06264637638574 69.55887866939781 106.15569876641962 H 0.0 **** 0.06
268 H 95.3340635988219 69.22728986821897 107.88318857849615 H 0.0 **** 0.06
269 H 93.99769078055422 68.42656568502426 107.02141884449966 H 0.0 **** 0.06
270 H 93.91258288997525 70.16983596145508 107.36998860324815 H 0.0 **** 0.06
271 C 118.52489385732727 78.65684272800425 12.857557333459141 C 0.0 **** -0.24
272 H 118.28731607310571 77.69266244938194 13.306742976002312 H 0.0 **** 0.06
273 H 119.60060215026087 78.72577449313641 12.695065298979955 H 0.0 **** 0.06
274 H 118.20639845872395 79.45673236279404 13.526087682732452 H 0.0 **** 0.06
275 H 118.0051478569954 78.75123044967285 11.904344557409104 H 0.0 **** 0.06
276 C 93.95365433374573 76.39216466364255 24.733987972153955 C 0.0 **** -0.24
277 H 93.84323983709231 76.43300471049531 23.650860447065753 H 0.0 **** 0.06
278 H 93.88889468575115 75.35663703538734 25.06738602666195 H 0.0 **** 0.06
279 H 93.16072709039648 76.975454874116 25.20202374154499 H 0.0 **** 0.06
280 H 94.9229369238166 76.80480928646966 25.01545963722225 H 0.0 **** 0.06
281 C 66.57966360947236 52.64370418483804 6.918860112961216 C 0.0 **** -0.24
282 H 65.56304150630336 52.25262666185511 6.873611207697309 H 0.0 **** 0.06
283 H 66.93704375364709 52.84287689757135 5.908639729826261 H 0.0 **** 0.06
284 H 67.22980543846552 51.91076634481546 7.397858406765447 H 0.0 **** 0.06
285 H 66.58775550904465 53.568034493897066 7.497260167087209 H 0.0 **** 0.06
286 C 73.07604007543526 85.52531692632249 83.69478102527961 C 0.0 **** -0.24
287 H 72.16146117749923 84.98910268133218 83.94634263407039 H 0.0 **** 0.06
288 H 73.90965783155727 85.1067717285766 84.25989163584148 H 0.0 **** 0.06
289 H 72.95875306981276 86.58018943337643 83.94654962266867 H 0.0 **** 0.06
290 H 73.27440273487136 85.42607522566763 82.6281368294222 H 0.0 **** 0.06
291 C 57.6882705829764 27.9225929331036 66.48053343917607 C 0.0 **** -0.24
292 H 56.70625089150056 27.946629487762948 66.00793725885313 H 0.0 **** 0.06
293 H 57.722317376765176 27.10794648326481 67.20459393635119 H 0.0 **** 0.06
294 H 57.8681117647067 28.869966916483406 66.98991573775683 H 0.0 **** 0.06
295 H 58.45339567222456 27.76638117057621 65.72049658776339 H 0.0 **** 0.06
296 C 32.37949984916164 101.09068673721947 2.910976815254628 C 0.0 **** -0.24
297 H 33.22167652939958 101.77759253751216 2.9923365574250056 H 0.0 **** 0.06
298 H 32.33358867240932 100.46564227995472 3.802582747743145 H 0.0 **** 0.06
299 H 32.509305635801184 100.45977312903935 2.0312375985949984 H 0.0 **** 0.06
300 H 31.45405226414986 101.65905567349654 2.8173707362098526 H 0.0 **** 0.06
301 C 35.09952509405838 97.43233717773197 60.34653890385436 C 0.0 **** -0.24
302 H 35.143721569189836 97.11324172468434 61.38892772969533 H 0.0 **** 0.06
303 H 35.17734456679062 98.51875461209349 60.296780486765066 H 0.0 **** 0.06
304 H 34.15267227088435 97.11450898889927 59.90976029217092 H 0.0 **** 0.06
305 H 35.92407774160421 96.98336433363565 59.79438151433991 H 0.0 **** 0.06
306 C 38.98287782461787 26.67185060847146 88.3707354636204 C 0.0 **** -0.24
307 H 39.96545025261338 26.202617425418254 88.33628060142658 H 0.0 **** 0.06
308 H 38.24252730784886 25.996885858723857 87.93938947147106 H 0.0 **** 0.06
309 H 39.00272595798313 27.600652986347683 87.80157230601952 H 0.0 **** 0.06
310 H 38.71831728588873 26.8861708474968 89.40650047689743 H 0.0 **** 0.06
311 C 60.73222983802268 87.36175554685923 42.263970902311115 C 0.0 **** -0.24
312 H 60.822112568301755 87.66753937475988 43.30674602906624 H 0.0 **** 0.06
313 H 61.344353006719594 86.47567880170556 42.092343787996214 H 0.0 **** 0.06
314 H 61.07331133330222 88.1703448471182 41.61791881991563 H 0.0 **** 0.06
315 H 59.689990528406575 87.13267576363427 42.041644008843434 H 0.0 **** 0.06
316 C 37.842138822952855 74.89480295930989 69.73042138819864 C 0.0 **** -0.24
317 H 38.210171479657426 73.91698420767631 69.4210220101935 H 0.0 **** 0.06
318 H 37.13835355507756 75.26990728145586 68.98773465473636 H 0.0 **** 0.06
319 H 38.68034520284446 75.58645205392517 69.81967503000399 H 0.0 **** 0.06
320 H 37.341402112440285 74.80627645565735 70.69462695949966 H 0.0 **** 0.06
321 C 31.404627859498227 65.57133983867132 35.34336415412244 C 0.0 **** -0.24
322 H 31.20490428032184 64.7644584428653 36.04835242753103 H 0.0 **** 0.06
323 H 31.64324131151232 65.14840350793017 34.3663282361346 H 0.0 **** 0.06
324 H 32.246538398982736 66.16439071820932 35.6985032560974 H 0.0 **** 0.06
325 H 30.522763386097147 66.20568870339105 35.25853438684247 H 0.0 **** 0.06
326 C 85.49210683774163 54.01724106739073 24.452320043449213 C 0.0 **** -0.24
327 H 86.09216890144481 53.577358209593285 23.65625276423662 H 0.0 **** 0.06
328 H 85.87644473297195 55.00978897000357 24.691028473922472 H 0.0 **** 0.06
329 H 85.54370806177724 53.38442147587372 25.337886643723174 H 0.0 **** 0.06
330 H 84.45518329951477 54.098177135519194 24.123378396721606 H 0.0 **** 0.06
331 C 109.62027094324941 85.87969447753025 42.85605567154079 C 0.0 **** -0.24
332 H 109.59886164985099 86.23335059114856 43.88685708961978 H 0.0 **** 0.06
333 H 110.01685976393038 86.66348056206641 42.21120281131317 H 0.0 **** 0.06
334 H 108.6087069276789 85.62396962077764 42.539474473696686 H 0.0 **** 0.06
335 H 110.2562225246212 84.99590815446052 42.78881726279812 H 0.0 **** 0.06
336 C 58.74302546100165 117.20304369184151 92.71257597271634 C 0.0 **** -0.24
337 H 59.211892218922316 118.18729044611518 92.68473836424974 H 0.0 **** 0.06
338 H 58.451500332078496 116.96848784774198 93.73712236888025 H 0.0 **** 0.06
339 H 59.44884859576527 116.45419762446693 92.354495276601 H 0.0 **** 0.06
340 H 57.8598992353609 117.20436357459653 92.0745071403579 H 0.0 **** 0.06
341 C 12.52039919104152 37.92160330344166 47.85449858646717 C 0.0 **** -0.24
342 H 12.630153306073055 36.849690396432095 48.021727101684746 H 0.0 **** 0.06
343 H 12.895892612836093 38.174843089062506 46.86247190479378 H 0.0 **** 0.06
344 H 13.088121033446896 38.466415710980414 48.608230547444236 H 0.0 **** 0.06
345 H 11.468165385577038 38.194337031411465 47.92513010679954 H 0.0 **** 0.06
346 C 85.99784394735303 74.55520747845077 49.17674308561499 C 0.0 **** -0.24
347 H 85.09550783395571 74.39189240047563 49.766449219383674 H 0.0 **** 0.06
348 H 85.83808164872846 74.19227961370288 48.16132201289639 H 0.0 **** 0.06
349 H 86.82909393158127 74.01560627120153 49.629659768780584 H 0.0 **** 0.06
350 H 86.2258851242483 75.6214831986982 49.15152472038329 H 0.0 **** 0.06
351 C 91.09096861696628 51.26233992093532 41.96369053749905 C 0.0 **** -0.24
352 H 90.47303625319319 50.564455371886936 41.3988478079206 H 0.0 **** 0.06
353 H 90.48281630489635 51.74937427804696 42.72719756453778 H 0.0 **** 0.06
354 H 91.4982981506075 52.015067091328774 41.288474981939835 H 0.0 **** 0.06
355 H 91.90738591695427 50.72059207770323 42.439521955875115 H 0.0 **** 0.06
356 C 1.495940980251774 55.331834764000156 103.23809514165663 C 0.0 **** -0.24
357 H 1.9409172848526168 56.22444653552132 102.7995933504383 H 0.0 **** 0.06
358 H 1.3513596179274145 55.486752212370085 104.30708501819959 H 0.0 **** 0.06
359 H 2.158353163233116 54.48003048623449 103.08045248756622 H 0.0 **** 0.06
360 H 0.5335219632732588 55.13538757478563 102.76582223960429 H 0.0 **** 0.06
361 C 20.20872837236459 8.06683402907396 3.6467909318354117 C 0.0 **** -0.24
362 H 19.793448552104792 8.139512092834352 2.642096409399045 H 0.0 **** 0.06
363 H 20.904879396583226 8.888532583992614 3.8118810437789676 H 0.0 **** 0.06
364 H 20.733903555220024 7.118180904131137 3.7554132718631195 H 0.0 **** 0.06
365 H 19.401344452231 8.120695106288068 4.377969319495335 H 0.0 **** 0.06
366 C 36.51884044420382 56.7753496506555 104.80640597467129 C 0.0 **** -0.24
367 H 36.74186325941557 56.13013243309527 105.65671367885574 H 0.0 **** 0.06
368 H 35.59273200469525 57.31718087056208 104.99538107961021 H 0.0 **** 0.06
369 H 36.408425353940146 56.16726901371672 103.90782982787567 H 0.0 **** 0.06
370 H 37.33405168147462 57.48507256068643 104.66588339944732 H 0.0 **** 0.06
371 C 24.986643881843754 76.65209350907605 4.257758400112605 C 0.0 **** -0.24
372 H 24.540672355838574 76.55180447829835 3.268248381911256 H 0.0 **** 0.06
373 H 24.279571906934535 76.30672697379612 5.012237537801806 H 0.0 **** 0.06
374 H 25.233218892604555 77.69847842755689 4.440315215952541 H 0.0 **** 0.06
375 H 25.895332582811363 76.05134166153886 4.308480144500555 H 0.0 **** 0.06
376 C 20.171431465708054 17.018781796750478 106.50727296653864 C 0.0 **** -0.24
377 H 20.030231052554313 16.260270891497342 105.73768009574084 H 0.0 **** 0.06
378 H 19.24047326710655 17.567461953902438 106.65161808810788 H 0.0 **** 0.06
379 H 20.95551887500659 17.70881891373697 106.19612788676179 H 0.0 **** 0.06
380 H 20.459260432610336 16.538560121441666 107.44227252429755 H 0.0 **** 0.06
381 C 0.20904314670819701 86.4707689109062 65.25953833420127 C 0.0 **** -0.24
382 H -0.2646360956720315 86.84163250253118 64.35127699094224 H 0.0 **** 0.06
383 H 0.6842586515639937 85.51079009604388 65.05507432236956 H 0.0 **** 0.06
384 H -0.5450693702944847 86.34473532280106 66.0372146734831 H 0.0 **** 0.06
385 H 0.9610222194430662 87.18482120839343 65.59525154003512 H 0.0 **** 0.06
386 C 97.79262892840816 115.93783214109595 69.88303991391248 C 0.0 **** -0.24
387 H 98.2578888358567 115.81212253014316 68.90565981967467 H 0.0 **** 0.06
388 H 98.42511513752856 116.56625603275066 70.50831429312532 H 0.0 **** 0.06
389 H 97.66908738981718 114.9617328661812 70.35361758378474 H 0.0 **** 0.06
390 H 96.81657885055745 116.40841127797722 69.76217582814394 H 0.0 **** 0.06
391 C 93.8956590020234 45.185453489683624 117.72453776141938 C 0.0 **** -0.24
392 H 93.40559835176393 44.42114825031018 118.3291547754497 H 0.0 **** 0.06
393 H 94.96172896989125 45.20035195686373 117.95367417181413 H 0.0 **** 0.06
394 H 93.46144070875997 46.158971641419214 117.9484738088887 H 0.0 **** 0.06
395 H 93.75435913359661 44.95724959191264 116.66785383139936 H 0.0 **** 0.06
396 C 40.73094228873214 30.96115649425235 80.08718986738688 C 0.0 **** -0.24
397 H 39.78552599899416 31.452855858296743 79.85654428808641 H 0.0 **** 0.06
398 H 40.640389591975236 29.89218808406389 79.89395859685612 H 0.0 **** 0.06
399 H 40.97721346126218 31.12125405577217 81.13646333031488 H 0.0 **** 0.06
400 H 41.51974092654871 31.378624228360366 79.461471109826 H 0.0 **** 0.06
401 C 44.24981150090571 54.315890203979265 86.07673873632908 C 0.0 **** -0.24
402 H 44.15290917458162 55.10141513010914 86.82607984021121 H 0.0 **** 0.06
403 H 43.81198145327255 53.39374413099793 86.45884217221513 H 0.0 **** 0.06
404 H 45.30418776222166 54.15413148971081 85.85505580130166 H 0.0 **** 0.06
405 H 43.729011157012565 54.616378555195496 85.16651105311024 H 0.0 **** 0.06
406 C 91.90735942862057 94.95992010556665 6.384548049645787 C 0.0 **** -0.24
407 H 92.905483405383 95.01719949842715 5.950990519004691 H 0.0 **** 0.06
408 H 91.60617026169615 95.9487181916364 6.733407791122701 H 0.0 **** 0.06
409 H 91.91628751483853 94.26600794565081 7.22438952517507 H 0.0 **** 0.06
410 H 91.20252874846511 94.60989823066231 5.6299879119361975 H 0.0 **** 0.06
411 C 88.01006150872814 21.160139128736375 31.79229836379713 C 0.0 **** -0.24
412 H 87.64815390013729 20.235310999925048 31.343567534287047 H 0.0 **** 0.06
413 H 89.04007801404131 21.335214457858513 31.48199821295003 H 0.0 **** 0.06
414 H 87.96576878830723 21.078011538908186 32.87857080559098 H 0.0 **** 0.06
415 H 87.38488082080934 21.990985533288438 31.46531988299307 H 0.0 **** 0.06
416 C 47.534166948226904 47.68407109110467 15.029768725174847 C 0.0 **** -0.24
417 H 47.23064373760681 46.85666542787942 14.3893875707966 H 0.0 **** 0.06
418 H 46.765334949816754 48.455761420771694 15.014280370997938 H 0.0 **** 0.06
419 H 48.473679069651205 48.09947917879708 14.665147457212129 H 0.0 **** 0.06
420 H 47.66792782874814 47.32422658767729 16.049892504588172 H 0.0 **** 0.06
421 C 38.42094135495705 55.68885573110639 101.50805296945728 C 0.0 **** -0.24
422 H 37.97850602472174 56.6655883156508 101.70446584990168 H 0.0 **** 0.06
423 H 37.680372165385194 54.91140879647627 101.69570186264411 H 0.0 **** 0.06
424 H 39.27804511870602 55.54044230563782 102.16428319967059 H 0.0 **** 0.06
425 H 38.745026990588315 55.639239425557626 100.46811915320748 H 0.0 **** 0.06
426 C 52.7182336610923 81.04966367904458 42.08510524736323 C 0.0 **** -0.24
427 H 52.31557501370153 81.97523642697936 42.4966288495682 H 0.0 **** 0.06
428 H 52.76920417015461 80.29499667922485 42.87074853104252 H 0.0 **** 0.06
429 H 53.717842811241724 81.23239105105026 41.69187786668488 H 0.0 **** 0.06
430 H 52.070175622011405 80.69712249597944 41.2837713832422 H 0.0 **** 0.06
431 C 108.63553334458962 74.47237149355078 48.152363859516186 C 0.0 **** -0.24
432 H 108.65092787048843 75.00654191981215 47.20282898382089 H 0.0 **** 0.06
433 H 108.0641895451947 75.04686377537712 48.882284757967 H 0.0 **** 0.06
434 H 109.65633868142774 74.3409729268393 48.51207552912632 H 0.0 **** 0.06
435 H 108.1697124859642 73.49722150160156 48.01304069514305 H 0.0 **** 0.06
436 C 58.55975481544002 21.618862080959616 58.95193154999813 C 0.0 **** -0.24
437 H 58.33513342640486 20.649586093764498 58.50720147459193 H 0.0 **** 0.06
438 H 59.63709994073469 21.787076603622666 58.93316999568997 H 0.0 **** 0.06
439 H 58.20744797694173 21.63452899802894 59.98380512198495 H 0.0 **** 0.06
440 H 58.0583290239748 22.40325328202755 58.384955190785924 H 0.0 **** 0.06
441 C 45.43680198546527 63.08618081854883 94.40192185495005 C 0.0 **** -0.24
442 H 46.1115606777988 62.508685364657445 93.77085988110227 H 0.0 **** 0.06
443 H 44.989835949422854 63.88990397508062 93.81507848700713 H 0.0 **** 0.06
444 H 45.994590865840514 63.51173374331123 95.23611598250281 H 0.0 **** 0.06
445 H 44.650395327102366 62.435910619206574 94.78543824379307 H 0.0 **** 0.06
446 C 65.14601098772994 11.921390300453616 17.941623242265933 C 0.0 **** -0.24
447 H 64.79000892222459 12.800621759916165 18.478147344611557 H 0.0 **** 0.06
448 H 64.3813334001305 11.14457163335253 17.968707594338525 H 0.0 **** 0.06
449 H 66.05704146125353 11.552117576672458 18.413275382654774 H 0.0 **** 0.06
450 H 65.35569057393215 12.188689790093523 16.90546491555739 H 0.0 **** 0.06
451 C 70.52306045892954 59.004910117696404 29.5689980077384 C 0.0 **** -0.24
452 H 71.55267962770958 59.345550833464166 29.682174372380302 H 0.0 **** 0.06
453 H 69.95526625512704 59.74532310624392 29.00485887438316 H 0.0 **** 0.06
454 H 70.07375511267566 58.87294982859223 30.552580071597504 H 0.0 **** 0.06
455 H 70.51341139312876 58.05491357534134 29.034392497967644 H 0.0 **** 0.06
456 C 21.18015162773142 60.893729659802204 113.74801531673246 C 0.0 **** -0.24
457 H 20.867070855846706 61.70877660647682 113.095305971968 H 0.0 **** 0.06
458 H 21.83535127147286 61.284024508864604 114.52740416906414 H 0.0 **** 0.06
459 H 21.716035786176008 60.1457900764168 113.1641984978293 H 0.0 **** 0.06
460 H 20.301919974859146 60.43771750753524 114.20527745514217 H 0.0 **** 0.06
461 C 10.054540324551567 27.19115152537144 67.75847311769269 C 0.0 **** -0.24
462 H 9.323656021497186 27.727141792726343 67.15422974837668 H 0.0 **** 0.06
463 H 10.951003855920305 27.801379936271502 67.86994066033873 H 0.0 **** 0.06
464 H 10.312856871606328 26.25237086243977 67.26806204191831 H 0.0 **** 0.06
465 H 9.631318897666603 26.98332789714862 68.74103024607251 H 0.0 **** 0.06
466 C 78.2219134646582 101.61987250781377 31.3343193410696 C 0.0 **** -0.24
467 H 78.5428579521373 100.68492293920855 31.79437428279357 H 0.0 **** 0.06
468 H 77.15151805883255 101.57724437601675 31.132767631290733 H 0.0 **** 0.06
469 H 78.76229927921952 101.76764071313278 30.39911331070624 H 0.0 **** 0.06
470 H 78.43295126353257 102.44842600512561 32.010293239609155 H 0.0 **** 0.06
471 C 30.669598494281416 101.77744087335572 26.123404676041837 C 0.0 **** -0.24
472 H 30.846850465412558 101.23970689847303 25.19186804556672 H 0.0 **** 0.06
473 H 31.538763728743334 101.67367398507713 26.773174493526675 H 0.0 **** 0.06
474 H 29.79246166789109 101.36439432442396 26.61994673204419 H 0.0 **** 0.06
475 H 30.50179806716133 102.8325567909923 25.90676211017874 H 0.0 **** 0.06
476 C 55.73035663552122 115.7189466348321 53.45017710194202 C 0.0 **** -0.24
477 H 55.81021846889831 114.86956808768582 52.77192513879436 H 0.0 **** 0.06
478 H 54.910343441831685 115.55014438979669 54.148987377165895 H 0.0 **** 0.06
479 H 55.5373859934727 116.62568771282201 52.87573685795354 H 0.0 **** 0.06
480 H 56.66256650996627 115.83073568057154 54.00384444426095 H 0.0 **** 0.06
481 C 49.993944410373814 98.53297994253106 45.81440581727085 C 0.0 **** -0.24
482 H 50.80749222156281 98.62714346047161 45.09463307477384 H 0.0 **** 0.06
483 H 50.403607397895556 98.28080312916046 46.792993430207986 H 0.0 **** 0.06
484 H 49.312061646223576 97.74667178260111 45.49117382532603 H 0.0 **** 0.06
485 H 49.45582292702057 99.47812160985802 45.87860863565402 H 0.0 **** 0.06
486 C 6.181909928903892 6.920017121637581 35.938291931473515 C 0.0 **** -0.24
487 H 5.595991491879147 6.12484998693828 35.47726765429172 H 0.0 **** 0.06
488 H 7.1998440621509445 6.891855322973882 35.55111301711716 H 0.0 **** 0.06
489 H 6.198571679408886 6.778646809997117 37.01831475942177 H 0.0 **** 0.06
490 H 5.729976124331969 7.884545806630129 35.70586592305426 H 0.0 **** 0.06
491 C 71.18852973729116 39.84923545989905 46.257193188205605 C 0.0 **** -0.24
492 H 71.4725934497971 39.02251193097061 46.907954709000705 H 0.0 **** 0.06
493 H 70.2156333877702 39.64090812877001 45.80948891304436 H 0.0 **** 0.06
494 H 71.93392304362891 39.964644104772304 45.46956618123036 H 0.0 **** 0.06
495 H 71.13036728105084 40.76757168232808 46.84044803017892 H 0.0 **** 0.06
496 C 86.61326934986772 11.404275941738337 22.63826765159172 C 0.0 **** -0.24
497 H 86.11509740984692 12.368017660046029 22.74521252446224 H 0.0 **** 0.06
498 H 87.69090076182067 11.557190443862883 22.582785729959262 H 0.0 **** 0.06
499 H 86.26782546046172 10.915892507061315 21.72743250063158 H 0.0 **** 0.06
500 H 86.37860153613425 10.776372910926685 23.49830161735386 H 0.0 **** 0.06
501 C 10.948684529736568 62.944432734516 70.59259890396285 C 0.0 **** -0.24
502 H 11.254433084783983 61.92880493069367 70.34247189262362 H 0.0 **** 0.06
503 H 11.83304391733941 63.55866830855382 70.7612573931593 H 0.0 **** 0.06
504 H 10.338845202515103 62.92822140312421 71.49633326968348 H 0.0 **** 0.06
505 H 10.367518522530474 63.36171712882924 69.7700282997086 H 0.0 **** 0.06
506 C 114.150864310819 41.56973385940749 20.73162190324871 C 0.0 **** -0.24
507 H 114.75131747452384 41.88127283693222 19.87687981483259 H 0.0 **** 0.06
508 H 113.56597590566889 40.68980113828997 20.463018936568915 H 0.0 **** 0.06
509 H 113.47933856736705 42.378903467890666 21.01785478437222 H 0.0 **** 0.06
510 H 114.80735369250206 41.32880847446334 21.567898314606225 H 0.0 **** 0.06
511 C 96.2335996556917 27.624140067176484 18.55708318397807 C 0.0 **** -0.24
512 H 95.55251652062171 28.441856828776395 18.319782375474674 H 0.0 **** 0.06
513 H 97.26049879022827 27.99078788270765 18.546120844674398 H 0.0 **** 0.06
514 H 96.12204346110875 26.833032539371175 17.816311558022324 H 0.0 **** 0.06
515 H 95.9983123522006 27.231849178484367 19.54622234815411 H 0.0 **** 0.06
516 C 97.26930620740131 26.976812330814482 10.958613777017007 C 0.0 **** -0.24
517 H 98.28743084133629 27.09987729193943 10.589546297482457 H 0.0 **** 0.06
518 H 97.14111809288977 27.562606604642845 11.869830299409216 H 0.0 **** 0.06
519 H 97.08562029436985 25.92418162915169 11.174184342486399 H 0.0 **** 0.06
520 H 96.5641076578446 27.32254509846706 10.202905884885212 H 0.0 **** 0.06
521 C 78.53196785317701 10.186601259332136 9.152506968441514 C 0.0 **** -0.24
522 H 77.846054801988 9.730122336674327 9.86634439168131 H 0.0 **** 0.06
523 H 78.21115570616956 9.949776473734886 8.138407803884434 H 0.0 **** 0.06
524 H 79.53771137589612 9.797253162171444 9.31592268171039 H 0.0 **** 0.06
525 H 78.53384130019626 11.267224894265652 9.291375815077174 H 0.0 **** 0.06
526 C 27.70694546038839 111.52348979429303 83.08536102863758 C 0.0 **** -0.24
527 H 28.61201845278591 111.18092187197263 82.5841578327811 H 0.0 **** 0.06
528 H 26.83395350196612 111.20290015671603 82.51668633724088 H 0.0 **** 0.06
529 H 27.717830599609215 112.6114472268739 83.15134367100316 H 0.0 **** 0.06
530 H 27.663195984018934 111.09947879006845 84.08838206542038 H 0.0 **** 0.06
531 C 25.52714813025804 16.733241428002188 12.240021214761043 C 0.0 **** -0.24
532 H 25.98427900780706 16.86605509780005 11.25977511132669 H 0.0 **** 0.06
533 H 24.793281049411974 17.52196668090249 12.407896748857723 H 0.0 **** 0.06
534 H 26.296915355100765 16.781807657075767 13.009931783863408 H 0.0 **** 0.06
535 H 25.032753852990794 15.762244616165496 12.280949298237005 H 0.0 **** 0.06
536 C 39.694470206252475 50.848346051445475 36.58030381721122 C 0.0 **** -0.24
537 H 39.2914224463471 50.040920502022374 37.19181348007655 H 0.0 **** 0.06
538 H 40.5656517670501 50.487991954511415 36.03175730447816 H 0.0 **** 0.06
539 H 39.98842449158829 51.67849890085455 37.2232406278427 H 0.0 **** 0.06
540 H 38.934195818136516 51.18482175779465 35.87649813833298 H 0.0 **** 0.06
541 C 41.35170981890181 35.910872732704064 55.02735786095622 C 0.0 **** -0.24
542 H 42.06728289906853 35.81247052866351 54.211402771663174 H 0.0 **** 0.06
543 H 41.839346232724665 35.66402663961844 55.970832475458316 H 0.0 **** 0.06
544 H 40.516665031451446 35.23004727828837 54.86051810142854 H 0.0 **** 0.06
545 H 40.982724376317925 36.93565614015267 55.064764523792824 H 0.0 **** 0.06
546 C 46.92028099670384 104.60348106806035 87.41642002354217 C 0.0 **** -0.24
547 H 45.84374164950677 104.70656418560793 87.28351621342281 H 0.0 **** 0.06
548 H 47.12794583313931 103.7239728674563 88.02642760464784 H 0.0 **** 0.06
549 H 47.31119374080899 105.49176934731025 87.91301014650188 H 0.0 **** 0.06
550 H 47.397263694366785 104.49172463886174 86.44255268429399 H 0.0 **** 0.06
551 C 69.49442309711321 115.23972264612858 27.553458662787648 C 0.0 **** -0.24
552 H 69.94956813630816 116.1469992136353 27.94984831116875 H 0.0 **** 0.06
553 H 69.50297139143203 114.46459779204848 28.32002697731673 H 0.0 **** 0.06
554 H 70.0598113840833 114.89891363552515 26.685928898908855 H 0.0 **** 0.06
555 H 68.465913185065 115.44789535407955 27.258692567452556 H 0.0 **** 0.06
556 C 2.0740128111853835 41.505191994567696 2.425940311783487 C 0.0 **** -0.24
557 H 2.4450008933406195 42.39638110424252 2.9312850767230447 H 0.0 **** 0.06
558 H 2.9152755593817545 40.890205187072034 2.10843802121304 H 0.0 **** 0.06
559 H 1.488419532557657 41.80010206535753 1.5544053376385083 H 0.0 **** 0.06
560 H 1.444835273478759 40.935236840197916 3.1107778193254525 H 0.0 **** 0.06
561 C 89.16220190948593 56.697654688651234 21.682484116749745 C 0.0 **** -0.24
562 H 88.70958423391028 55.7790050336958 21.30899297821173 H 0.0 **** 0.06
563 H 88.8189636259624 56.88458780725029 22.700208088897497 H 0.0 **** 0.06
564 H 88.87320603394375 57.530951237525876 21.042889910086615 H 0.0 **** 0.06
565 H 90.24783922274094 56.59545595910978 21.677829023150977 H 0.0 **** 0.06
566 C 8.063348063391075 6.732630291946709 31.040072522729282 C 0.0 **** -0.24
567 H 7.320377460129535 7.313574340449261 31.585120387768768 H 0.0 **** 0.06
568 H 7.778588546319369 5.679619231629875 31.047714732562085 H 0.0 **** 0.06
569 H 9.036176676845173 6.84924888673584 31.516986689822353 H 0.0 **** 0.06
570 H 8.118246529148877 7.08676978874945 30.009932710302202 H 0.0 **** 0.06
571 C 40.890068680191646 0.038413343535012245 22.779196009347743 C 0.0 **** -0.24
572 H 41.19466603059895 0.35318660140939073 21.78139754168933 H 0.0 **** 0.06
573 H 39.80410175394593 -0.04919451687169385 22.816159268464133 H 0.0 **** 0.06
574 H 41.22155467024713 0.7753048862951459 23.510653083436694 H 0.0 **** 0.06
575 H 41.34023552121229 -0.9278584615473164 23.0084540066359 H 0.0 **** 0.06
576 C 46.88927205014002 58.851957852908896 71.84035730918288 C 0.0 **** -0.24
577 H 46.43015628432538 59.51589725909676 71.10883788567588 H 0.0 **** 0.06
578 H 47.90321993691373 58.605606937731466 71.5229135134312 H 0.0 **** 0.06
579 H 46.30106621783486 57.93706164560922 71.92026647198483 H 0.0 **** 0.06
580 H 46.922285106135135 59.34807508559098 72.81008426504926 H 0.0 **** 0.06
581 C 71.39913811704847 92.89879706002333 2.5313662815911755 C 0.0 **** -0.24
582 H 71.467279655682 93.82209725323452 1.9552689750863124 H 0.0 **** 0.06
583 H 70.56552847452474 92.30176996185864 2.1620301787572203 H 0.0 **** 0.06
584 H 71.23866495170196 93.1380211306516 3.582389948700694 H 0.0 **** 0.06
585 H 72.32553839841049 92.33552312825745 2.424855757442714 H 0.0 **** 0.06
586 C 69.69636493976279 71.85470562305261 97.03259025539339 C 0.0 **** -0.24
587 H 69.34927045494351 71.05686477894778 96.37536424697444 H 0.0 **** 0.06
588 H 69.28261850124906 71.71062480942715 98.02960632802225 H 0.0 **** 0.06
589 H 69.37017871945181 72.81733522960258 96.63778599050178 H 0.0 **** 0.06
590 H 70.78495406903863 71.83372248150533 97.08330495615371 H 0.0 **** 0.06
591 C 47.810167894241324 51.48633968889179 107.25860666211057 C 0.0 **** -0.24
592 H 47.50608579135623 50.44069399620125 107.31751167063197 H 0.0 **** 0.06
593 H 48.82463699649495 51.59164818436922 107.64168245762977 H 0.0 **** 0.06
594 H 47.130654971081384 52.09633560101058 107.85332147568653 H 0.0 **** 0.06
595 H 47.77839652824715 51.81549257476655 106.21930660494576 H 0.0 **** 0.06
596 C 96.1862034594455 13.306450201759613 30.081671286012693 C 0.0 **** -0.24
597 H 96.36652351431383 12.978502048274855 29.057760510352068 H 0.0 **** 0.06
598 H 97.04209223147367 13.041719752101447 30.703290802259886 H 0.0 **** 0.06
599 H 95.29149309763534 12.81700591402527 30.467170002252487 H 0.0 **** 0.06
600 H 96.04467763682533 14.386636884497193 30.097345507945704 H 0.0 **** 0.06
601 C 96.22620228453496 2.882435567067205 37.456700450686625 C 0.0 **** -0.24
602 H 96.42186200563077 3.112160541425567 36.408852974260604 H 0.0 **** 0.06
603 H 95.31375783152652 2.291361162915962 37.53451902788102 H 0.0 **** 0.06
604 H 96.10646280252723 3.810822620001858 38.01507622110794 H 0.0 **** 0.06
605 H 97.06255679336317 2.316702665817445 37.86654548830525 H 0.0 **** 0.06
606 C 90.16772071519526 110.09138056751736 116.72601527665609 C 0.0 **** -0.24
607 H 89.93822543954275 110.69615618171517 115.84821689783058 H 0.0 **** 0.06
608 H 90.97694197623946 110.55766274051489 117.28677937480076 H 0.0 **** 0.06
609 H 90.47207361846438 109.09404632156406 116.4088571627335 H 0.0 **** 0.06
610 H 89.28195944918963 110.01748132761865 117.35735471128946 H 0.0 **** 0.06
611 C 75.56103344841736 108.71950728728427 75.8024988002415 C 0.0 **** -0.24
612 H 75.63284146438656 107.63279129577339 75.83012957619141 H 0.0 **** 0.06
613 H 75.17725351361895 109.08320572763887 76.75546414702416 H 0.0 **** 0.06
614 H 74.88400167213229 109.01838995360518 75.000737715709 H 0.0 **** 0.06
615 H 76.54748287342036 109.14420585830683 75.6204764500747 H 0.0 **** 0.06
616 C 80.28722520758203 69.82276480307573 66.70280969731095 C 0.0 **** -0.24
617 H 81.25241909831203 69.38866420962694 66.44426197200539 H 0.0 **** 0.06
618 H 79.68026305334746 69.07745382992388 67.21764279177873 H 0.0 **** 0.06
619 H 79.77696080719232 70.14125943898699 65.79294428461122 H 0.0 **** 0.06
620 H 80.4386875459968 70.68348409845663 67.35423661244428 H 0.0 **** 0.06
621 C 7.317441412310188 110.7992166501594 98.87948367660957 C 0.0 **** -0.24
622 H 6.938193303546257 109.95115380567245 98.31086891146805 H 0.0 **** 0.06
623 H 6.499020674486474 111.25986360613447 99.43388382195229 H 0.0 **** 0.06
624 H 7.749807906820934 111.52993743162334 98.19579373500707 H 0.0 **** 0.06
625 H 8.082398313297631 110.45758617939737 99.57711047993448 H 0.0 **** 0.06
626 C 52.63181935579527 19.662835725642054 63.411066275179024 C 0.0 **** -0.24
627 H 51.560605476326174 19.570233998630883 63.23379451063306 H 0.0 **** 0.06
628 H 52.84486434466129 19.458345155620265 64.4608362853464 H 0.0 **** 0.06
629 H 52.954418231611385 20.675240475542026 63.16577823802794 H 0.0 **** 0.06
630 H 53.166604465895546 18.94932717904325 62.785315586547085 H 0.0 **** 0.06
631 C 41.60782798529743 85.01567974790476 75.29284882100012 C 0.0 **** -0.24
632 H 40.88496422107954 84.99630509345849 76.10870983599483 H 0.0 **** 0.06
633 H 41.21713856078378 84.44381120148921 74.44964015233228 H 0.0 **** 0.06
634 H 42.54577373046027 84.57309724414628 75.62793398043388 H 0.0 **** 0.06
635 H 41.780855474399345 86.04629270279725 74.9852632021267 H 0.0 **** 0.06
636 C 83.8401328223168 70.76052854079191 51.76985641965092 C 0.0 **** -0.24
637 H 84.34503554431294 69.80998611337444 51.60033989833403 H 0.0 **** 0.06
638 H 84.23865512635334 71.22756130866154 52.67063994007796 H 0.0 **** 0.06
639 H 82.77110377799238 70.58748358402363 51.891638540848504 H 0.0 **** 0.06
640 H 84.00711052414388 71.41737613348607 50.915067342108614 H 0.0 **** 0.06
641 C 25.522242877267843 50.53926628024443 74.15130073877427 C 0.0 **** -0.24
642 H 24.601987117795318 50.698704054572715 73.58852853329171 H 0.0 **** 0.06
643 H 26.095149460610912 49.73514859278319 73.68998595087896 H 0.0 **** 0.06
644 H 25.277285232750614 50.26985193959092 75.17851747090077 H 0.0 **** 0.06
645 H 26.11295521786525 51.455898682066234 74.1480446475588 H 0.0 **** 0.06
646 C 61.988840373783205 109.29851007443332 0.0893257821034581 C 0.0 **** -0.24
647 H 62.19133618521647 108.24525034398013 0.28436160747344275 H 0.0 **** 0.06
648 H 60.9822033941353 109.4068639450519 -0.31435230003944525 H 0.0 **** 0.06
649 H 62.71272757541158 109.68056887621731 -0.6305172310806313 H 0.0 **** 0.06
650 H 62.07023633960043 109.86241006969276 1.0190709707975145 H 0.0 **** 0.06
651 C 51.9864102238557 88.89382780024118 71.55216005501597 C 0.0 **** -0.24
652 H 51.45025574899927 88.68520724069828 70.6262948289814 H 0.0 **** 0.06
653 H 52.999456269528025 89.22144488497631 71.31802261099187 H 0.0 **** 0.06
654 H 52.02711336425213 87.99122390384915 72.16051187148528 H 0.0 **** 0.06
655 H 51.467779672384964 89.68013307413588 72.10143410911382 H 0.0 **** 0.06
656 C 88.40973586469474 71.08373169968363 48.18340349279691 C 0.0 **** -0.24
657 H 88.57168432546612 71.7578516395111 49.02482526835962 H 0.0 **** 0.06
658 H 89.30927022230918 71.04805195578987 47.56756133938714 H 0.0 **** 0.06
659 H 87.57346334826116 71.44464238845228 47.58471298972373 H 0.0 **** 0.06
660 H 88.18452556274252 70.08438081498119 48.556514373717306 H 0.0 **** 0.06
661 C 52.55783801708469 13.315375250041626 87.92944570470567 C 0.0 **** -0.24
662 H 53.49294852861135 12.933501851386922 88.33995715088739 H 0.0 **** 0.06
663 H 52.62430603090513 13.344592427093147 86.84067250474627 H 0.0 **** 0.06
664 H 52.3781441604126 14.320907466381641 88.30976746943949 H 0.0 **** 0.06
665 H 51.73781157436906 12.66200952139647 88.22586664525357 H 0.0 **** 0.06
666 C 14.937751610243993 23.00630499922817 32.97906244169238 C 0.0 **** -0.24
667 H 15.464047714832958 23.27105379090289 32.061517288829805 H 0.0 **** 0.06
668 H 15.204577074930114 21.990021379258568 33.270409986351495 H 0.0 **** 0.06
669 H 13.86252637537055 23.065849672771996 32.81043060979678 H 0.0 **** 0.06
670 H 15.22052570586851 23.697974672673404 33.772688581151584 H 0.0 **** 0.06
671 C 55.04267430461212 5.942795278755597 102.3044905827939 C 0.0 **** -0.24
672 H 54.84341474600555 5.28888003114065 101.4555441524407 H 0.0 **** 0.06
673 H 54.34254900945018 5.718034814046661 103.10867578102301 H 0.0 **** 0.06
674 H 54.92296220171403 6.982461882205314 101.99855271615505 H 0.0 **** 0.06
675 H 56.062297562218845 5.782627525594137 102.65497635136501 H 0.0 **** 0.06
676 C 108.80999705648739 116.67183719847499 41.21565000385044 C 0.0 **** -0.24
677 H 108.17036488362567 117.27981524160111 41.85568279181021 H 0.0 **** 0.06
678 H 109.83832196407926 116.72611724333773 41.57205579872877 H 0.0 **** 0.06
679 H 108.7594056266096 117.04420471325815 40.191994022515075 H 0.0 **** 0.06
680 H 108.46999162966492 115.63639469193961 41.24202640261203 H 0.0 **** 0.06
681 C 18.024731986534903 80.7501922845735 63.317891114176916 C 0.0 **** -0.24
682 H 17.845811958341073 80.25180629159001 64.2708227050127 H 0.0 **** 0.06
683 H 17.298850691753444 80.39971154908642 62.58331420068362 H 0.0 **** 0.06
684 H 19.032387968928248 80.52015032090924 62.9712995625533 H 0.0 **** 0.06
685 H 17.921213640357564 81.8278792322981 63.445869188150965 H 0.0 **** 0.06
686 C 70.67822047412986 76.19931835811224 87.81389961168395 C 0.0 **** -0.24
687 H 71.63095252824425 76.09284817181558 87.29468835246081 H 0.0 **** 0.06
688 H 69.87894276482933 76.32815214719679 87.0831926649677 H 0.0 **** 0.06
689 H 70.7153540239795 77.07001614776414 88.46827336126631 H 0.0 **** 0.06
690 H 70.486580766607 75.30543598068303 88.4076496416292 H 0.0 **** 0.06
691 C 80.70180490041713 58.67195253108116 82.59491844545283 C 0.0 **** -0.24
692 H 79.78573502579408 58.16094134983166 82.8918614525322 H 0.0 **** 0.06
693 H 80.72122685566688 59.66836064863014 83.03562376722456 H 0.0 **** 0.06
694 H 80.73670934823681 58.753460314177346 81.50796269557657 H 0.0 **** 0.06
695 H 81.56431678088515 58.1030075728371 82.94372860802139 H 0.0 **** 0.06
696 C 86.64652058324265 75.20911052500165 95.9837515494871 C 0.0 **** -0.24
697 H 85.97880140507527 74.45938485319016 96.40777285041199 H 0.0 **** 0.06
698 H 87.52907671608489 74.71737605323821 95.5735778051442 H 0.0 **** 0.06
699 H 86.94796643185322 75.90857604369197 96.76276495901283 H 0.0 **** 0.06
700 H 86.12925778497674 75.7481739171372 95.19022120307551 H 0.0 **** 0.06
701 C 113.07722341738273 99.71123137752113 10.475537809558489 C 0.0 **** -0.24
702 H 112.45277913329963 100.22915929934678 9.748578740551011 H 0.0 **** 0.06
703 H 113.05370252853275 98.63925547306565 10.277623582235151 H 0.0 **** 0.06
704 H 112.700218859961 99.9028421202108 11.480147412995848 H 0.0 **** 0.06
705 H 114.10256838680334 100.07311930688925 10.39704952915639 H 0.0 **** 0.06
706 C 66.90297900508648 80.87517871432209 92.1450645462285 C 0.0 **** -0.24
707 H 66.96923595838632 80.15803551485362 91.32610954677273 H 0.0 **** 0.06
708 H 65.8959604685316 80.85750210340558 92.56173680176707 H 0.0 **** 0.06
709 H 67.12412476449549 81.87485184374913 91.76938671649307 H 0.0 **** 0.06
710 H 67.6221249504639 80.60984058500938 92.91948323697977 H 0.0 **** 0.06
711 C 90.15297461988291 21.396465933836232 67.32180927566043 C 0.0 **** -0.24
712 H 91.03795117479996 20.97197190147478 67.7963236682034 H 0.0 **** 0.06
713 H 89.8630169067959 22.30820917740009 67.84500561474124 H 0.0 **** 0.06
714 H 89.33601147901186 20.675714465894792 67.3678002666714 H 0.0 **** 0.06
715 H 90.37421600474772 21.62933969603878 66.2811260778081 H 0.0 **** 0.06
716 C 3.732211351604377 79.32966937810718 23.632202764505564 C 0.0 **** -0.24
717 H 4.609569359462885 79.02422783844804 23.062386179941655 H 0.0 **** 0.06
718 H 2.8551383196481197 79.31704645214268 22.98365497098291 H 0.0 **** 0.06
719 H 3.882706535180292 80.33711439528349 24.019053195870697 H 0.0 **** 0.06
720 H 3.579864102591854 78.6399496420836 24.4625211283074 H 0.0 **** 0.06
721 C 75.31070500828795 11.866520021140957 13.804084204851222 C 0.0 **** -0.24
722 H 75.24253163864694 10.81239213344844 13.534048289922367 H 0.0 **** 0.06
723 H 76.03424082221238 11.988829785803773 14.61082572883808 H 0.0 **** 0.06
724 H 74.33316427935915 12.22051374780736 14.134635644971922 H 0.0 **** 0.06
725 H 75.63082812314465 12.44354888797605 12.93644807428008 H 0.0 **** 0.06
726 C 60.76068615936424 7.5267737732123265 42.70887146560035 C 0.0 **** -0.24
727 H 60.27376939807584 6.641429156074565 43.11848296563704 H 0.0 **** 0.06
728 H 61.66847311788507 7.736423357528565 43.27586400648069 H 0.0 **** 0.06
729 H 60.083777381556615 8.378522362584903 42.77822158440226 H 0.0 **** 0.06
730 H 61.01722254826808 7.350097139883189 41.664454881203696 H 0.0 **** 0.06
731 C 53.4628082346799 27.332605715008945 54.23600647822079 C 0.0 **** -0.24
732 H 52.41970536193145 27.018227380090075 54.278834803657645 H 0.0 **** 0.06
733 H 53.512371648254145 28.391601242272124 53.982362002766735 H 0.0 **** 0.06
734 H 53.985808381745386 26.751573640073985 53.47608663195416 H 0.0 **** 0.06
735 H 53.93139878448456 27.16814666312741 55.20608001181784 H 0.0 **** 0.06
736 C 99.8841344249293 43.266057000377344 54.85749711796482 C 0.0 **** -0.24
737 H 99.52928228733424 43.964306151687424 55.61570399397686 H 0.0 **** 0.06
738 H 100.97298909420573 43.209045573388295 54.89853269112404 H 0.0 **** 0.06
739 H 99.57454429102535 43.61213227301275 53.87151466135609 H 0.0 **** 0.06
740 H 99.46156314370029 42.27957825668943 55.04645406887547 H 0.0 **** 0.06
741 C 12.461118227313065 63.1024334028972 2.911453640770361 C 0.0 **** -0.24
742 H 12.103202294573933 63.834630229154776 2.1870610592364415 H 0.0 **** 0.06
743 H 13.31285942125838 63.51420000982652 3.4529633615269972 H 0.0 **** 0.06
744 H 12.765312699297112 62.19427858650655 2.3897725124220415 H 0.0 **** 0.06
745 H 11.662096813141062 62.86646497488582 3.6140247956383575 H 0.0 **** 0.06
746 C 52.342340241345426 83.33358879638865 37.64333488245171 C 0.0 **** -0.24
747 H 51.80649917394277 82.42587686866406 37.9230508929739 H 0.0 **** 0.06
748 H 53.030202827615426 83.60968092407197 38.44276704992725 H 0.0 **** 0.06
749 H 51.62905903022863 84.14126150021906 37.48104733537879 H 0.0 **** 0.06
750 H 52.90438060594872 83.1548314294038 36.72675155635045 H 0.0 **** 0.06
751 C 21.076779564936913 56.92366008658876 9.275182803164228 C 0.0 **** -0.24
752 H 20.708202538303112 57.33250142858491 10.21636256480781 H 0.0 **** 0.06
753 H 20.364835765606472 56.191087946046586 8.893384787735869 H 0.0 **** 0.06
754 H 22.040933170896125 56.442438667349116 9.440580395661542 H 0.0 **** 0.06
755 H 21.19315334594046 57.730250535722625 8.549841031630748 H 0.0 **** 0.06
756 C 104.53162729710917 95.06741460007188 62.43613119586058 C 0.0 **** -0.24
757 H 104.08399350851519 94.15849345354536 62.03541078126648 H 0.0 **** 0.06
758 H 104.06799129061267 95.93670942606505 61.96852046262734 H 0.0 **** 0.06
759 H 105.60115694074202 95.0686964450494 62.22552664676542 H 0.0 **** 0.06
760 H 104.3723696027227 95.10559408116481 63.51334140307529 H 0.0 **** 0.06
761 C 46.143327325262135 63.369138674369594 90.78658667645104 C 0.0 **** -0.24
762 H 46.94758837237876 63.34230122712046 91.52234311377532 H 0.0 **** 0.06
763 H 46.125394129678824 62.42878626952984 90.23547930378487 H 0.0 **** 0.06
764 H 46.312248828690315 64.19350955508742 90.09444168275891 H 0.0 **** 0.06
765 H 45.19043159882747 63.510881957423976 91.2961572070241 H 0.0 **** 0.06
766 C 79.1549595393461 62.59787255361601 93.50943587833964 C 0.0 **** -0.24
767 H 80.14177590492525 62.58209363197225 93.97156143158952 H 0.0 **** 0.06
768 H 78.53188808060892 63.34260201411333 94.00658843877329 H 0.0 **** 0.06
769 H 78.69280723405657 61.61580556303472 93.60455781364087 H 0.0 **** 0.06
770 H 79.25259748884807 62.85246400024861 92.45354163019093 H 0.0 **** 0.06
771 C 45.787113048139396 0.24227185040655286 12.814542307891372 C 0.0 **** -0.24
772 H 45.196667479729285 0.8506031247400188 12.128316581002991 H 0.0 **** 0.06
773 H 45.49198864717698 -0.8028967878373123 12.718314911151055 H 0.0 **** 0.06
774 H 45.61374721788619 0.5770918634345321 13.83680174788796 H 0.0 **** 0.06
775 H 46.8452234950933 0.3458460170291744 12.573359252438195 H 0.0 **** 0.06
776 C 83.91281561482276 73.01302506544528 74.38435367405341 C 0.0 **** -0.24
777 H 83.61245090296057 72.77798056188615 73.3640299028429 H 0.0 **** 0.06
778 H 83.87108186622993 72.10996156303054 74.9928905616892 H 0.0 **** 0.06
779 H 83.2364336122119 73.76185362787646 74.79777573619256 H 0.0 **** 0.06
780 H 84.93007181459302 73.40438412059325 74.38313890755191 H 0.0 **** 0.06
781 C 2.294593118910102 111.56053213494388 96.61989262498165 C 0.0 **** -0.24
782 H 2.407888785909682 111.8128920696931 97.6739790047991 H 0.0 **** 0.06
783 H 2.3935204039863187 112.4633194611036 96.01679061781769 H 0.0 **** 0.06
784 H 1.3109298153969373 111.11994295800045 96.45604428531229 H 0.0 **** 0.06
785 H 3.065647136811908 110.84518974442636 96.33324204867918 H 0.0 **** 0.06
786 C 21.62058184883449 50.74501057877667 101.08551689674596 C 0.0 **** -0.24
787 H 20.6846020755699 50.18937985562207 101.14045245106686 H 0.0 **** 0.06
788 H 22.06065341133649 50.61799598863509 100.09580635601307 H 0.0 **** 0.06
789 H 22.310061253836523 50.37056946261072 101.84128636697082 H 0.0 **** 0.06
790 H 21.425316393764604 51.803152318396634 101.26351439829978 H 0.0 **** 0.06
791 C 42.54720121111821 113.5285928225648 11.475012778375483 C 0.0 **** -0.24
792 H 41.51576300300413 113.61264307936412 11.13357272252943 H 0.0 **** 0.06
793 H 43.03017000625834 112.69222166050307 10.97049821461859 H 0.0 **** 0.06
794 H 42.56144509125775 113.3611467276071 12.552091002187627 H 0.0 **** 0.06
795 H 43.08158566394094 114.45056097255723 11.244249697270572 H 0.0 **** 0.06
796 C 21.180493171192808 20.16087912873408 89.8298733613685 C 0.0 **** -0.24
797 H 21.87352150625796 20.559256131102273 89.08826489922004 H 0.0 **** 0.06
798 H 21.154428043192354 20.824925119967077 90.69434958996465 H 0.0 **** 0.06
799 H 21.513700295681275 19.170976222482523 90.14182981079367 H 0.0 **** 0.06
800 H 20.183590755584987 20.088793778228194 89.39541297704116 H 0.0 **** 0.06
801 C 26.06406164209264 64.12088233108568 65.86591529678014 C 0.0 **** -0.24
802 H 25.171370567640707 64.73672456050042 65.9771968723299 H 0.0 **** 0.06
803 H 26.533595503338233 63.981201847026455 66.83939711871207 H 0.0 **** 0.06
804 H 26.764048139733546 64.614536818721 65.19131337127695 H 0.0 **** 0.06
805 H 25.786743587548898 63.150751876158466 65.45337417783091 H 0.0 **** 0.06
806 C 101.06941184745943 39.49701873253554 40.61811360068981 C 0.0 **** -0.24
807 H 100.7914550678068 39.825192434111756 39.61675572537075 H 0.0 **** 0.06
808 H 100.88840113273824 40.30400849444635 41.328252478515424 H 0.0 **** 0.06
809 H 102.12650495440886 39.23098206426923 40.63295420236449 H 0.0 **** 0.06
810 H 100.47218261307137 38.62830162168768 40.89432251666301 H 0.0 **** 0.06
811 C 25.09844824656645 72.42952933167996 78.73714215195187 C 0.0 **** -0.24
812 H 25.41531513966322 71.75427166688533 77.94248624342296 H 0.0 **** 0.06
813 H 24.020953387183766 72.58235253581594 78.67578690594411 H 0.0 **** 0.06
814 H 25.607750252010362 73.38713347954535 78.62588851539991 H 0.0 **** 0.06
815 H 25.350012430884163 71.99469696561417 79.70531772434359 H 0.0 **** 0.06
816 C 3.626727838254453 80.69345936930151 85.07148695947794 C 0.0 **** -0.24
817 H 3.271411809751072 81.26578429014148 85.92778434502773 H 0.0 **** 0.06
818 H 3.111008564630936 79.73276917732579 85.03686512391815 H 0.0 **** 0.06
819 H 4.6999475883759345 80.52685953333989 85.16625223397119 H 0.0 **** 0.06
820 H 3.4244562294158243 81.24705906825213 84.15468811167591 H 0.0 **** 0.06
821 C 78.68202926406988 41.07448336584741 39.51101142526588 C 0.0 **** -0.24
822 H 78.66206696809004 40.64234364792543 38.51047989340273 H 0.0 **** 0.06
823 H 78.33243581029345 40.336367994676436 40.23211795139139 H 0.0 **** 0.06
824 H 78.03209657428101 41.949097818298355 39.54133696033338 H 0.0 **** 0.06
825 H 79.70121840959297 41.370611910613604 39.758817649684076 H 0.0 **** 0.06
826 C 51.97051640591339 94.31674847132399 115.9756549287082 C 0.0 **** -0.24
827 H 51.962668884464854 95.32492381139622 115.5608170125856 H 0.0 **** 0.06
828 H 52.977424861592276 93.90499775006734 115.90713285619432 H 0.0 **** 0.06
829 H 51.281101283440385 93.68737641405701 115.41264943338035 H 0.0 **** 0.06
830 H 51.66188477042742 94.3521174257929 117.01999350596299 H 0.0 **** 0.06
831 C 117.00659595702551 105.53910784264767 51.60547044476306 C 0.0 **** -0.24
832 H 116.95984840345966 105.48478292774493 50.517226852694364 H 0.0 **** 0.06
833 H 116.00643044212065 105.41296271293498 52.01905462122062 H 0.0 **** 0.06
834 H 117.40328966993081 106.51029037551538 51.90302079930399 H 0.0 **** 0.06
835 H 117.65766233864304 104.74983798337831 51.980089145315105 H 0.0 **** 0.06
836 C 1.353713667987293 107.92579708020381 56.33659122209959 C 0.0 **** -0.24
837 H 2.2226421656620943 107.83418019342378 56.98872941071598 H 0.0 **** 0.06
838 H 0.8654915745579359 106.95529971367142 56.24486527312245 H 0.0 **** 0.06
839 H 1.6736898559717588 108.2658694307994 55.35194530958487 H 0.0 **** 0.06
840 H 0.6549581509623721 108.64534025009158 56.761032983870074 H 0.0 **** 0.06
841 C 20.881222948885807 97.67405133830886 32.919961956207146 C 0.0 **** -0.24
842 H 21.15662483471506 96.9374420253217 32.166039535455425 H 0.0 **** 0.06
843 H 21.705640775307856 97.8002517585021 33.623047567713265 H 0.0 **** 0.06
844 H 19.995395650548545 97.33275784288196 33.45588670219102 H 0.0 **** 0.06
845 H 20.667326412834825 98.62722629262495 32.436224053084324 H 0.0 **** 0.06
846 C 114.30053557043506 29.769025954876994 55.07573342121202 C 0.0 **** -0.24
847 H 113.91278900886849 30.363669978936514 55.90327356951195 H 0.0 **** 0.06
848 H 115.23048846127033 30.210415369921797 54.71599653169389 H 0.0 **** 0.06
849 H 113.56963927516001 29.75123890816152 54.26791553531007 H 0.0 **** 0.06
850 H 114.48927877881101 28.75143316113808 55.41810820201482 H 0.0 **** 0.06
851 C 94.20671073724228 7.804019104140735 23.632041682230252 C 0.0 **** -0.24
852 H 94.71500148087773 7.264299995897886 24.430812831742436 H 0.0 **** 0.06
853 H 94.63743461313817 8.79996583711727 23.535183323726308 H 0.0 **** 0.06
854 H 93.14552191365792 7.887118596557315 23.868784963459284 H 0.0 **** 0.06
855 H 94.32731240912713 7.2625061485173035 22.694251474425286 H 0.0 **** 0.06
856 C 16.426378495637735 98.88335974494879 13.808266305358423 C 0.0 **** -0.24
857 H 17.12511237531757 99.16207301631567 14.596020931645807 H 0.0 **** 0.06
858 H 15.685066284782792 98.19107764819512 14.208901231799206 H 0.0 **** 0.06
859 H 16.96981502085923 98.40244223279515 12.994169423938981 H 0.0 **** 0.06
860 H 15.925702623811361 99.7758546328653 13.433940149183854 H 0.0 **** 0.06
861 C 20.62461817480272 4.4827135524732356 59.87887361906476 C 0.0 **** -0.24
862 H 20.007986140733408 3.715798275890336 60.34781868418702 H 0.0 **** 0.06
863 H 20.237273952610167 5.468254058640472 60.13615536992799 H 0.0 **** 0.06
864 H 20.602001851995908 4.353908071890965 58.796459070147165 H 0.0 **** 0.06
865 H 21.651455446797996 4.389840101016132 60.23427674236697 H 0.0 **** 0.06
866 C 97.42009248596665 106.6922263006914 76.89535747491652 C 0.0 **** -0.24
867 H 97.64702634980415 107.50021008041494 77.58995356339699 H 0.0 **** 0.06
868 H 98.29489518826512 106.48849340358856 76.27641982745251 H 0.0 **** 0.06
869 H 96.5853553956764 106.98383179303187 76.25886731155549 H 0.0 **** 0.06
870 H 97.15403046650238 105.79562360533396 77.45543799920796 H 0.0 **** 0.06
871 C 45.62031939806505 107.27208248387569 5.69352498901543 C 0.0 **** -0.24
872 H 46.57706937004893 107.11233303737734 5.195800964122668 H 0.0 **** 0.06
873 H 44.816614228391586 107.22960033970813 4.9573294088681905 H 0.0 **** 0.06
874 H 45.62058242646495 108.24951397690526 6.17469658623844 H 0.0 **** 0.06
875 H 45.467165881187654 106.49665453286875 6.44429198312946 H 0.0 **** 0.06
876 C 40.05106429241519 48.3908403085952 55.94795157993741 C 0.0 **** -0.24
877 H 39.35209053830857 47.58722312157167 56.18008233108171 H 0.0 **** 0.06
878 H 39.49430253565998 49.2945171565523 55.6973998978612 H 0.0 **** 0.06
879 H 40.67081407167822 48.099003524498755 55.10035436013902 H 0.0 **** 0.06
880 H 40.685400560176745 48.582549220187346 56.813445524691275 H 0.0 **** 0.06
881 C 47.81886886934953 9.395192178071355 33.64654771845994 C 0.0 **** -0.24
882 H 47.66652048374792 8.372410530058243 33.303056538270084 H 0.0 **** 0.06
883 H 46.88243627854479 9.948359029607364 33.56529448226712 H 0.0 **** 0.06
884 H 48.578725492412616 9.875703393283718 33.03014812352268 H 0.0 **** 0.06
885 H 48.14645899731104 9.384525447558836 34.686219547663086 H 0.0 **** 0.06
886 C 5.763512416036544 52.0416046181334 13.01290343796856 C 0.0 **** -0.24
887 H 6.5644494365661 51.417221113598636 13.409301874046633 H 0.0 **** 0.06
888 H 5.445569191875823 51.65166734690333 12.04499088474978 H 0.0 **** 0.06
889 H 6.124673025174541 53.06340341686788 12.892028055227982 H 0.0 **** 0.06
890 H 4.920543469382405 52.033245442627326 13.703338811736316 H 0.0 **** 0.06
891 C 4.66032562081045 7.066721511155237 48.826822349725944 C 0.0 **** -0.24
892 H 4.4809597059831745 5.9972894100028356 48.718552371311944 H 0.0 **** 0.06
893 H 4.010039433353237 7.466465476570463 49.605212504113695 H 0.0 **** 0.06
894 H 4.44833519934272 7.568533273339625 47.88219721639996 H 0.0 **** 0.06
895 H 5.701099550950488 7.2341137016119035 49.10122161684828 H 0.0 **** 0.06
896 C 113.64512328142723 60.585396434466475 30.641376302713212 C 0.0 **** -0.24
897 H 113.1257603267504 61.000358751980855 29.776903033887862 H 0.0 **** 0.06
898 H 113.10394037333297 59.71057692630205 31.003937397284034 H 0.0 **** 0.06
899 H 113.69356813042452 61.33610888785876 31.43038865932502 H 0.0 **** 0.06
900 H 114.65552342011264 60.295742789711085 30.353461607655476 H 0.0 **** 0.06
901 C 6.480071911337831 78.65715629751759 1.1722303059398058 C 0.0 **** -0.24
902 H 5.539080870493649 78.72251002186232 0.6256735002002927 H 0.0 **** 0.06
903 H 7.311570431197239 78.79618461801073 0.4806068802523953 H 0.0 **** 0.06
904 H 6.55903711236742 77.6787800607168 1.6446791616417045 H 0.0 **** 0.06
905 H 6.50987858038593 79.43300185536413 1.9369353291783398 H 0.0 **** 0.06
906 C 28.036066360785185 28.675962971344433 43.21200793610245 C 0.0 **** -0.24
907 H 27.04509919122404 28.966034090673958 43.56023823911062 H 0.0 **** 0.06
908 H 28.792281534317937 29.239835544470793 43.75918063897092 H 0.0 **** 0.06
909 H 28.123344310822574 28.888997973961295 42.146750597653806 H 0.0 **** 0.06
910 H 28.183540406776245 27.608984276271855 43.3818622686743 H 0.0 **** 0.06
911 C 92.26473361149215 108.77404851193802 56.56795271427274 C 0.0 **** -0.24
912 H 92.20420800739134 107.74016742505958 56.90746722575347 H 0.0 **** 0.06
913 H 91.93471233667881 109.43829003590272 57.36643358556355 H 0.0 **** 0.06
914 H 91.62547038984914 108.90767565045215 55.69531138732298 H 0.0 **** 0.06
915 H 93.29561453456608 109.00889495015508 56.3018958134931 H 0.0 **** 0.06
916 C 82.23379121864826 43.8755676829118 13.72709398420298 C 0.0 **** -0.24
917 H 81.30278525799636 43.85762729834084 13.159977021877182 H 0.0 **** 0.06
918 H 82.55809627295366 44.90861330606941 13.860126520681462 H 0.0 **** 0.06
919 H 82.99969750382508 43.32117336551986 13.185986791558662 H 0.0 **** 0.06
920 H 82.07291898450165 43.41657091342991 14.702818170632895 H 0.0 **** 0.06
921 C 37.85416637480105 26.423972223630443 39.76919883180042 C 0.0 **** -0.24
922 H 36.8865713761655 26.879351274986732 39.55753535945732 H 0.0 **** 0.06
923 H 37.80434154543978 25.890694654779224 40.719216287522414 H 0.0 **** 0.06
924 H 38.61592065433097 27.20140738450405 39.82741012967409 H 0.0 **** 0.06
925 H 38.10860838684786 25.72513594137891 38.97274566672232 H 0.0 **** 0.06
926 C 55.08015372205559 90.32032572482893 27.774878321549295 C 0.0 **** -0.24
927 H 55.45976023054437 90.21978395219753 28.791044520470876 H 0.0 **** 0.06
928 H 54.98311597437006 89.33211648319354 27.323574842690306 H 0.0 **** 0.06
929 H 55.77285982466493 90.92196970934381 27.185843195111545 H 0.0 **** 0.06
930 H 54.10548781418379 90.80652391397524 27.797707836425843 H 0.0 **** 0.06
931 C 65.0845687407525 102.5344242152396 65.03973769745468 C 0.0 **** -0.24
932 H 64.68718399013898 102.49252873386524 66.0538953295364 H 0.0 **** 0.06
933 H 64.7310021913145 101.67095413243925 64.4753435615404 H 0.0 **** 0.06
934 H 66.1739666741795 102.52325945881125 65.07587724477557 H 0.0 **** 0.06
935 H 64.74581013901894 103.44957520568215 64.55381912437977 H 0.0 **** 0.06
936 C 108.17129662374185 24.39193304369553 77.56292887803338 C 0.0 **** -0.24
937 H 108.96964019034249 25.0251465257561 77.94953434344328 H 0.0 **** 0.06
938 H 107.20725622619346 24.85747262673391 77.76658433940528 H 0.0 **** 0.06
939 H 108.21415641237462 23.416976930431588 78.04829284073554 H 0.0 **** 0.06
940 H 108.2944236158308 24.268227429841147 76.48635128447148 H 0.0 **** 0.06
941 C 65.80418625425179 16.229094270237812 107.43161694971445 C 0.0 **** -0.24
942 H 65.03462963035616 15.519361713390918 107.7350718308976 H 0.0 **** 0.06
943 H 66.78260283374803 15.85770893773556 107.7376113046752 H 0.0 **** 0.06
944 H 65.6167174861024 17.19244972528614 107.90600951485243 H 0.0 **** 0.06
945 H 65.78226879118546 16.347388183485137 106.34897543224179 H 0.0 **** 0.06
946 C 15.702651688722426 16.52406902880449 9.339681782837062 C 0.0 **** -0.24
947 H 14.719260737899361 16.173792476818022 9.65437716591876 H 0.0 **** 0.06
948 H 15.81261655009493 17.57702577573795 9.60070369143483 H 0.0 **** 0.06
949 H 15.803269880271358 16.40356556068869 8.260807604393705 H 0.0 **** 0.06
950 H 16.473311318489635 15.94129609136354 9.844846156576352 H 0.0 **** 0.06
951 C 9.266024231060733 48.2739336767238 90.72887351476811 C 0.0 **** -0.24
952 H 8.278506946236632 48.36721719362305 91.18120347158259 H 0.0 **** 0.06
953 H 9.519995220442315 47.21872922440457 90.6275775307443 H 0.0 **** 0.06
954 H 10.00352313941099 48.7656071726185 91.3637302996242 H 0.0 **** 0.06
955 H 9.262026144055593 48.74273869505868 89.74561294347205 H 0.0 **** 0.06
956 C 4.839164578562915 81.6298711114992 27.393183613912875 C 0.0 **** -0.24
957 H 4.650724871205966 82.03894826911599 26.400538193504794 H 0.0 **** 0.06
958 H 5.844954445062285 81.9024302973231 27.71231177458553 H 0.0 **** 0.06
959 H 4.749027541041755 80.54433995198104 27.360626682416232 H 0.0 **** 0.06
960 H 4.1115785406294805 82.03471434097492 28.096436108407815 H 0.0 **** 0.06
961 C 35.90555876937997 39.95048544764228 52.26490072512544 C 0.0 **** -0.24
962 H 35.361155776737824 40.14880218537468 51.34128204743669 H 0.0 **** 0.06
963 H 36.131890516221624 40.89384806542523 52.763142189833246 H 0.0 **** 0.06
964 H 36.83518110631031 39.429264766419806 52.03298269594882 H 0.0 **** 0.06
965 H 35.294898744076775 39.3300335856199 52.920405383713785 H 0.0 **** 0.06
966 C 90.20355295919714 62.712178018460264 73.43672672681862 C 0.0 **** -0.24
967 H 89.38228226648798 62.056387427832306 73.72627419491766 H 0.0 **** 0.06
968 H 90.4375355933125 62.554960081355546 72.38293389885018 H 0.0 **** 0.06
969 H 91.0799820591389 62.48429206264407 74.0419502316858 H 0.0 **** 0.06
970 H 89.91265629903862 63.75040252885685 73.59407831022105 H 0.0 **** 0.06
971 C 23.869303694912148 27.79452890830285 30.138272558429946 C 0.0 **** -0.24
972 H 22.863298773931973 27.789227643561077 29.71788392197817 H 0.0 **** 0.06
973 H 24.238720061329843 28.819721651096387 30.18185045216063 H 0.0 **** 0.06
974 H 24.528599802774878 27.19701430332546 29.508128489432693 H 0.0 **** 0.06
975 H 23.84485974129163 27.372835457525554 31.14230871453435 H 0.0 **** 0.06
976 C 111.75225535482865 105.70026678983592 99.78665254182829 C 0.0 **** -0.24
977 H 110.91690625818923 106.30558854561642 100.13880454824391 H 0.0 **** 0.06
978 H 111.49759584272459 105.25612395047108 98.82439933345387 H 0.0 **** 0.06
979 H 111.95729759431097 104.91005194106398 100.50923525101047 H 0.0 **** 0.06
980 H 112.63501065265113 106.32976413771087 99.67511898511174 H 0.0 **** 0.06
981 C 63.36517748821792 52.10829477642005 79.05105756865748 C 0.0 **** -0.24
982 H 64.35592453198817 52.54383229963503 78.91749488881771 H 0.0 **** 0.06
983 H 62.84125174448467 52.63791607444699 79.84762128074107 H 0.0 **** 0.06
984 H 63.46380734008003 51.05680487552845 79.31780204696346 H 0.0 **** 0.06
985 H 62.800552701935054 52.19673332446433 78.1230079841969 H 0.0 **** 0.06
986 C 32.41978992629913 75.89581725312794 21.335176131595503 C 0.0 **** -0.24
987 H 33.270900073536495 75.27476100348139 21.058497371575488 H 0.0 **** 0.06
988 H 31.634747654223418 75.7910560333822 20.586106506746003 H 0.0 **** 0.06
989 H 32.732331000723775 76.93844270660477 21.390626952229514 H 0.0 **** 0.06
990 H 32.03919219863229 75.57860212467304 22.306844588444633 H 0.0 **** 0.06
991 C 93.189067035575 96.69729857045155 103.70111226170849 C 0.0 **** -0.24
992 H 94.24555556260543 96.90827537853153 103.53953481627929 H 0.0 **** 0.06
993 H 92.58788321260008 97.3253256100167 103.043789961257 H 0.0 **** 0.06
994 H 92.93174856535563 96.90681488525067 104.73992203943112 H 0.0 **** 0.06
995 H 92.98990652786759 95.6476936344626 103.48276576433148 H 0.0 **** 0.06
996 C 59.91969025017028 31.750199309052483 114.92534223899139 C 0.0 **** -0.24
997 H 59.91827745145349 32.22998326170182 113.94683321657746 H 0.0 **** 0.06
998 H 60.58863429159902 32.29246458137888 115.5943899765752 H 0.0 **** 0.06
999 H 60.26307857642553 30.720483788753178 114.82408515959952 H 0.0 **** 0.06
1000 H 58.91013117264134 31.758011628041658 115.33570303188966 H 0.0 **** 0.06
1001 C 22.66450290405895 7.3450543463769264 71.69683476351713 C 0.0 **** -0.24
1002 H 22.557885058185953 7.643906013673391 72.73965396548499 H 0.0 **** 0.06
1003 H 22.21792013094103 6.360595170729175 71.55363006358743 H 0.0 **** 0.06
1004 H 23.72253966668646 7.304607143405434 71.43750521406105 H 0.0 **** 0.06
1005 H 22.160694957917034 8.069294614435051 71.05783470661277 H 0.0 **** 0.06
1006 C 91.6814592540183 118.51549836203061 72.04135750963141 C 0.0 **** -0.24
1007 H 91.69232474238459 118.79008134885562 70.98648087985703 H 0.0 **** 0.06
1008 H 91.18028243981217 119.2956598843887 72.61433514530151 H 0.0 **** 0.06
1009 H 92.70578054106244 118.40339854114464 72.39743914227373 H 0.0 **** 0.06
1010 H 91.1474933093325 117.57386984962784 72.16545275514721 H 0.0 **** 0.06
1011 C 3.4978125104460105 61.83973122186382 43.87545895026156 C 0.0 **** -0.24
1012 H 4.203434892058766 62.056394232265085 44.67706217092089 H 0.0 **** 0.06
1013 H 4.010815986570037 61.894199616046585 42.91577820147381 H 0.0 **** 0.06
1014 H 2.687888507526253 62.56915891430523 43.89713714602178 H 0.0 **** 0.06
1015 H 3.0885414115286096 60.838419192127894 44.01218860375525 H 0.0 **** 0.06
1016 C 42.94695266756028 48.689982426648584 20.5390803299522 C 0.0 **** -0.24
1017 H 43.63177710999099 48.30552790860472 21.294395316090032 H 0.0 **** 0.06
1018 H 43.50609062878149 48.95425661889573 19.640821718197387 H 0.0 **** 0.06
1019 H 42.44064518901543 49.574363425713756 20.92503436341906 H 0.0 **** 0.06
1020 H 42.208327103136824 47.92593390160451 20.295883458181763 H 0.0 **** 0.06
1021 C 5.682829925992735 41.4195659815115 112.95247123698289 C 0.0 **** -0.24
1022 H 6.541417925938163 41.78734711084971 112.38940877430073 H 0.0 **** 0.06
1023 H 4.8164269030122 42.046991329305314 112.74424592900749 H 0.0 **** 0.06
1024 H 5.907633164129152 41.45077511090233 114.01817476647227 H 0.0 **** 0.06
1025 H 5.468552919330762 40.3921509954271 112.65614464273406 H 0.0 **** 0.06
1026 C 25.720801718446694 109.71475348405298 114.83867189950016 C 0.0 **** -0.24
1027 H 24.976472535975233 109.53514468199955 115.6152151281496 H 0.0 **** 0.06
1028 H 26.322941517321 110.5829525744189 115.10743126939843 H 0.0 **** 0.06
1029 H 25.21699763676645 109.9005727488152 113.89038545142344 H 0.0 **** 0.06
1030 H 26.363830026641722 108.84050556753024 114.74313303073669 H 0.0 **** 0.06
1031 C 20.7326449745267 41.08180119529766 21.452111722485952 C 0.0 **** -0.24
1032 H 21.487376829930266 41.21830417277502 20.677529034607417 H 0.0 **** 0.06
1033 H 20.894401994919022 41.80788577658697 22.248503201078847 H 0.0 **** 0.06
1034 H 20.809925217039666 40.07289966748402 21.858788630067295 H 0.0 **** 0.06
1035 H 19.74175474263048 41.225842607172865 21.022885540064067 H 0.0 **** 0.06
1036 C 26.037034569819014 50.39968884811477 1.0120601937528022 C 0.0 **** -0.24
1037 H 25.591582230547772 50.15738576906263 1.9778966759812135 H 0.0 **** 0.06
1038 H 25.293022610846435 50.266807337960365 0.22602690283366655 H 0.0 **** 0.06
1039 H 26.88398797499667 49.739937652717465 0.8268905746825794 H 0.0 **** 0.06
1040 H 26.377107110598388 51.434846985673154 1.0196639505979306 H 0.0 **** 0.06
1041 C 93.68089354112095 43.21055407445988 38.95935193461901 C 0.0 **** -0.24
1042 H 94.15983750009019 42.46993525342532 38.31939336006572 H 0.0 **** 0.06
1043 H 93.95859428919294 43.02795725756721 39.9979675176878 H 0.0 **** 0.06
1044 H 92.5989319992031 43.13668558607918 38.853530432992706 H 0.0 **** 0.06
1045 H 94.00724292763283 44.20860433005225 38.66649300886911 H 0.0 **** 0.06
1046 C 57.67528114003301 118.51659513555407 101.61550430252018 C 0.0 **** -0.24
1047 H 57.79280786886932 119.32323610121892 102.33895048251051 H 0.0 **** 0.06
1048 H 58.54650945560297 117.86195659981263 101.6572924726176 H 0.0 **** 0.06
1049 H 57.583567325850936 118.9368525419755 100.61419524372775 H 0.0 **** 0.06
1050 H 56.77812074219048 117.9440868315322 101.85254032358353 H 0.0 **** 0.06
1051 C 98.0539306959055 75.77244764320383 71.60882823677292 C 0.0 **** -0.24
1052 H 98.35728434694056 76.7093779796833 72.07591567196775 H 0.0 **** 0.06
1053 H 96.98257446851943 75.79668576582358 71.40799259944455 H 0.0 **** 0.06
1054 H 98.28044755039267 74.94312481356124 72.27787176770988 H 0.0 **** 0.06
1055 H 98.59628322704043 75.64198985876845 70.67238279401101 H 0.0 **** 0.06
1056 C 109.29933625804378 79.93615616877358 56.0739704200685 C 0.0 **** -0.24
1057 H 110.36480849722076 79.71665773793896 55.99563141158658 H 0.0 **** 0.06
1058 H 108.76348641069214 79.03325926547708 56.36695966573834 H 0.0 **** 0.06
1059 H 108.92847378862405 80.28305684142984 55.10998522032035 H 0.0 **** 0.06
1060 H 109.14259955585436 80.71156987292821 56.82425423386092 H 0.0 **** 0.06
1061 C 54.57124394072924 80.0363672555813 31.97343255958765 C 0.0 **** -0.24
1062 H 54.075613346839994 80.86180615838526 32.48506967761489 H 0.0 **** 0.06
1063 H 53.86775906899003 79.21274357372437 31.84728305660775 H 0.0 **** 0.06
1064 H 55.42152084355269 79.70088630849972 32.56637457454883 H 0.0 **** 0.06
1065 H 54.91787347985693 80.37083832708538 30.99568994091817 H 0.0 **** 0.06
1066 C 80.63369646316644 13.384270806586915 27.60817006162116 C 0.0 **** -0.24
1067 H 80.61605938256812 14.4424787917829 27.866975594243584 H 0.0 **** 0.06
1068 H 79.88855389779505 12.85323428315251 28.201348277290677 H 0.0 **** 0.06
1069 H 81.62217470243812 12.975586221937924 27.815715710586986 H 0.0 **** 0.06
1070 H 80.40679278534341 13.265062743846538 26.548473991917426 H 0.0 **** 0.06
1071 C 24.95255491289589 31.476894496976797 33.503673263358216 C 0.0 **** -0.24
1072 H 24.026011596204 31.832330167573502 33.051472416544385 H 0.0 **** 0.06
1073 H 25.442882624115498 32.30200367906292 34.020471245573134 H 0.0 **** 0.06
1074 H 25.61130154241056 31.091427052004406 32.724888729003695 H 0.0 **** 0.06
1075 H 24.72790250056306 30.682892908224517 34.21554917589982 H 0.0 **** 0.06
1076 C 63.33044080886217 116.24855758447264 18.216307793826616 C 0.0 **** -0.24
1077 H 63.11701651074994 116.58147661487237 17.20111840631398 H 0.0 **** 0.06
1078 H 64.40884911843037 116.20364826880174 18.36426781707638 H 0.0 **** 0.06
1079 H 62.89925623340566 115.25936322219209 18.37237503756495 H 0.0 **** 0.06
1080 H 62.89401032899173 116.95076428817416 18.927652883862493 H 0.0 **** 0.06
1081 C 113.84547042354356 87.4113800076259 73.40436752809399 C 0.0 **** -0.24
1082 H 114.45056735804056 88.27827850958221 73.66819172519263 H 0.0 **** 0.06
1083 H 113.75826553531022 87.34636223387298 72.31929673285674 H 0.0 **** 0.06
1084 H 112.85352449779865 87.51248243078538 73.84376495599986 H 0.0 **** 0.06
1085 H 114.32119224465862 86.50716178824047 73.78538430990903 H 0.0 **** 0.06
1086 C 46.000536072458715 23.326917759719095 78.71891306049451 C 0.0 **** -0.24
1087 H 47.07052635344891 23.212799549051283 78.89094319251188 H 0.0 **** 0.06
1088 H 45.69311450654587 22.674309349819907 77.9017216389064 H 0.0 **** 0.06
1089 H 45.783476309161756 24.363139044754348 78.45828666619366 H 0.0 **** 0.06
1090 H 45.45611460840857 23.058289073428966 79.6244408033196 H 0.0 **** 0.06
1091 C 37.31227491594282 60.473928311695005 35.77017490827734 C 0.0 **** -0.24
1092 H 37.865886938920454 61.04910483406533 36.51225728873379 H 0.0 **** 0.06
1093 H 36.67508532387453 59.747244914992734 36.27470762771338 H 0.0 **** 0.06
1094 H 38.01393556218741 59.9526534789197 35.118270383035 H 0.0 **** 0.06
1095 H 36.69633658115592 61.14738663457359 35.1744934460815 H 0.0 **** 0.06
1096 C 66.77727124088332 111.30131027661398 73.79207392036852 C 0.0 **** -0.24
1097 H 67.58748984165791 111.70886398599183 73.18695294185153 H 0.0 **** 0.06
1098 H 67.084747256312 110.34314855749037 74.21262388135744 H 0.0 **** 0.06
1099 H 65.89507757411911 111.15889220705213 73.16740277835856 H 0.0 **** 0.06
1100 H 66.54246221660307 111.99407937962599 74.59974911518648 H 0.0 **** 0.06
1101 C 43.402737354116255 94.54394564038068 26.267459241571856 C 0.0 **** -0.24
1102 H 44.38095385382451 94.34217525775267 25.831569653168202 H 0.0 **** 0.06
1103 H 42.982662836454494 95.44292484120527 25.81660188787933 H 0.0 **** 0.06
1104 H 43.508522752932265 94.6907698869509 27.342108314945335 H 0.0 **** 0.06
1105 H 42.74064556639536 93.69870018325562 26.079155868000157 H 0.0 **** 0.06
1106 C 51.13786547325458 78.24017473873826 118.5800954020761 C 0.0 **** -0.24
1107 H 51.64563174910237 77.4876452788221 117.97662841720191 H 0.0 **** 0.06
1108 H 50.08698250190318 78.28698456739284 118.2947020184347 H 0.0 **** 0.06
1109 H 51.60310845766609 79.21239867509487 118.41525245970385 H 0.0 **** 0.06
1110 H 51.21683400018822 77.97434514497684 119.63495902264859 H 0.0 **** 0.06
1111 C 92.31714370267116 18.82441034850956 15.85762456749191 C 0.0 **** -0.24
1112 H 92.2491043301396 17.849458412781615 15.373994551864087 H 0.0 **** 0.06
1113 H 92.00854713929053 18.73466761977363 16.90013168511186 H 0.0 **** 0.06
1114 H 91.66395317266708 19.52992995398853 15.344720335734763 H 0.0 **** 0.06
1115 H 93.34553591346153 19.18228968791692 15.812776115240467 H 0.0 **** 0.06
1116 C 65.90494359315605 8.083680971874514 109.97211371732683 C 0.0 **** -0.24
1117 H 65.29137581634487 8.573666974887374 109.2164955368466 H 0.0 **** 0.06
1118 H 66.8947975031432 8.541381462626646 109.98929377273949 H 0.0 **** 0.06
1119 H 65.9981208747162 7.023855427361866 109.73372870116721 H 0.0 **** 0.06
1120 H 65.43571698188671 8.196478794358427 110.95016570396064 H 0.0 **** 0.06
1121 C 14.812490070281967 67.80627901465147 6.413918118361613 C 0.0 **** -0.24
1122 H 14.283968536670756 67.46100709873338 7.302703741760698 H 0.0 **** 0.06
1123 H 15.234110841985 68.79366391918668 6.603535038248118 H 0.0 **** 0.06
1124 H 14.11749052411298 67.86253012909216 5.576453504795952 H 0.0 **** 0.06
1125 H 15.61504489899977 67.1088410258094 6.175151424819809 H 0.0 **** 0.06
1126 C 50.269457480070564 21.320466773643062 92.04561068350276 C 0.0 **** -0.24
1127 H 49.42656818833075 20.857704688933467 92.55910019127711 H 0.0 **** 0.06
1128 H 50.98570192706134 21.687613586795365 92.78221628554289 H 0.0 **** 0.06
1129 H 49.913328804386 22.152851248958598 91.43844675611919 H 0.0 **** 0.06
1130 H 50.752760292934084 20.58326728407276 91.40503217083025 H 0.0 **** 0.06
1131 C 41.46667501525897 40.47886439955488 4.685880581871828 C 0.0 **** -0.24
1132 H 41.29233576463646 40.190943768960494 3.649857889314461 H 0.0 **** 0.06
1133 H 42.53960246441852 40.51100718561685 4.878704788391303 H 0.0 **** 0.06
1134 H 40.9996125773302 39.74967904570235 5.349235745567938 H 0.0 **** 0.06
1135 H 41.03460369798407 41.462986485289036 4.867136374782348 H 0.0 **** 0.06
1136 C 25.933497263846704 48.96121039288607 53.101597281242924 C 0.0 **** -0.24
1137 H 26.283353843749282 48.687523530719716 52.106212208120965 H 0.0 **** 0.06
1138 H 26.766827619441763 48.9216549498978 53.80289781485122 H 0.0 **** 0.06
1139 H 25.157471443312822 48.26350543092764 53.418507930325276 H 0.0 **** 0.06
1140 H 25.524780948195435 49.97104141151175 53.078191883863084 H 0.0 **** 0.06
1141 C 92.32270830870522 27.335261738227445 63.98748466037028 C 0.0 **** -0.24
1142 H 92.70468481752994 28.22085443948953 64.49541682875568 H 0.0 **** 0.06
1143 H 92.52944343178984 26.452505691557917 64.59288282994177 H 0.0 **** 0.06
1144 H 92.81046858526938 27.233948089125136 63.017688774593346 H 0.0 **** 0.06
1145 H 91.24688667533212 27.434889115245454 63.8444540727506 H 0.0 **** 0.06
1146 C 112.75624772077953 34.267872143999256 75.1742745380424 C 0.0 **** -0.24
1147 H 112.62186644834856 33.33465381701842 75.7225499090136 H 0.0 **** 0.06
1148 H 112.83104118118348 34.054662873132 74.10796158550713 H 0.0 **** 0.06
1149 H 113.6676197011169 34.75951085021637 75.51268551701477 H 0.0 **** 0.06
1150 H 111.90269939723635 34.92063747173029 75.3563081526234 H 0.0 **** 0.06
1151 C 36.62423548769132 57.19756654165246 62.49202808285193 C 0.0 **** -0.24
1152 H 35.642250351886844 57.003488717630376 62.06001698424299 H 0.0 **** 0.06
1153 H 37.271140955807425 56.336131295360815 62.3237270232236 H 0.0 **** 0.06
1154 H 36.522330230183854 57.373544889504274 63.56264681894112 H 0.0 **** 0.06
1155 H 37.06086200296906 58.07792954274089 62.019675584757266 H 0.0 **** 0.06
1156 C 96.68225369758972 13.801785550697748 60.69094262937845 C 0.0 **** -0.24
1157 H 97.48424008001732 13.723303537772118 59.956376748299625 H 0.0 **** 0.06
1158 H 95.71932611670044 13.68909289596743 60.1920694492916 H 0.0 **** 0.06
1159 H 96.72870636077533 14.776981338312044 61.17644334039324 H 0.0 **** 0.06
1160 H 96.79697968347244 13.017577000574267 61.43983415616615 H 0.0 **** 0.06
1161 C 25.679923827674514 0.8525308624738699 5.392410131025059 C 0.0 **** -0.24
1162 H 26.12752030355827 1.7145583056204572 4.897328645957373 H 0.0 **** 0.06
1163 H 26.205437146723398 -0.05343855597266156 5.0907883100097 H 0.0 **** 0.06
1164 H 24.63034794054485 0.7752469305504519 5.110020019991623 H 0.0 **** 0.06
1165 H 25.756697760184494 0.974926014438509 6.473633912529721 H 0.0 **** 0.06
1166 C 96.58908654717365 78.31372110131736 54.41708683120237 C 0.0 **** -0.24
1167 H 95.80969289463874 79.06747403960614 54.53117732869504 H 0.0 **** 0.06
1168 H 97.2206369672044 78.30663302598683 55.30465277920047 H 0.0 **** 0.06
1169 H 97.19377008482672 78.54786920783266 53.541515021669625 H 0.0 **** 0.06
1170 H 96.12921188941394 77.33431783571137 54.289658245656256 H 0.0 **** 0.06
1171 C 56.399252789503954 79.02111644622386 9.742086297331738 C 0.0 **** -0.24
1172 H 56.67719756113075 79.86669479078847 10.372335943476028 H 0.0 **** 0.06
1173 H 56.51946358880685 79.29508268652901 8.694652124841486 H 0.0 **** 0.06
1174 H 55.35906144917737 78.7549984888544 9.931130747056564 H 0.0 **** 0.06
1175 H 57.039952692643915 78.17012147721314 9.972737014936943 H 0.0 **** 0.06
1176 C 58.78985015897343 45.82362500443989 106.323938054341 C 0.0 **** -0.24
1177 H 59.47655390665101 45.751599576332524 107.16776796055208 H 0.0 **** 0.06
1178 H 58.00409478668518 46.543217716032785 106.55514451505556 H 0.0 **** 0.06
1179 H 58.3443898918161 44.84782148915494 106.13465751475528 H 0.0 **** 0.06
1180 H 59.33481369573433 46.151978494777694 105.43906671882917 H 0.0 **** 0.06
1181 C 70.2302769664069 100.36781209097418 9.311662262255865 C 0.0 **** -0.24
1182 H 70.64572733495345 99.77171786138453 8.498227988456819 H 0.0 **** 0.06
1183 H 71.03874631712426 100.8643840397547 9.84693891721652 H 0.0 **** 0.06
1184 H 69.68540398485857 99.71774752407882 9.99608906683892 H 0.0 **** 0.06
1185 H 69.55089556736095 101.11576933077973 8.90289649746849 H 0.0 **** 0.06
1186 C 108.82382511668308 51.870965391851115 58.666299445532275 C 0.0 **** -0.24
1187 H 108.56885874153207 52.70898626820389 58.01787851269975 H 0.0 **** 0.06
1188 H 109.7964159540422 52.05053571668296 59.12508606652773 H 0.0 **** 0.06
1189 H 108.86250156207626 50.95526101912827 58.07652136124739 H 0.0 **** 0.06
1190 H 108.06668551918759 51.7714374218682 59.44439546237564 H 0.0 **** 0.06
1191 C 38.40255197210922 2.208370101120437 21.289568405674714 C 0.0 **** -0.24
1192 H 37.87557562216989 1.4325610232016857 20.733675610601892 H 0.0 **** 0.06
1193 H 38.553665898292365 1.8783186741246425 22.3174600436557 H 0.0 **** 0.06
1194 H 37.81171167350419 3.123735000513534 21.284059496649036 H 0.0 **** 0.06
1195 H 39.368546646878116 2.396346096475355 20.8220057641512 H 0.0 **** 0.06
1196 C 64.86153846888828 65.11787732868203 33.10845140747231 C 0.0 **** -0.24
1197 H 64.66696182348585 65.91971901669092 33.82076482964106 H 0.0 **** 0.06
1198 H 65.34161032883424 65.52840719230261 32.22035018146668 H 0.0 **** 0.06
1199 H 63.91978173377066 64.64568268678346 32.827885782657866 H 0.0 **** 0.06
1200 H 65.51660487120603 64.37723256170722 33.56633879707005 H 0.0 **** 0.06
1201 C 27.762883197192338 67.01644048528294 86.99456446753885 C 0.0 **** -0.24
1202 H 28.66371071129973 66.97194977847198 87.60775042296922 H 0.0 **** 0.06
1203 H 26.90025523940122 66.73473647744152 87.59858304383829 H 0.0 **** 0.06
1204 H 27.85993860113136 66.327060619577 86.15628636575877 H 0.0 **** 0.06
1205 H 27.62844953271096 68.03047560810882 86.61879339890197 H 0.0 **** 0.06
1206 C 68.29678333854932 49.043058841229566 98.93069886246579 C 0.0 **** -0.24
1207 H 67.60163942610865 49.683764975103514 98.3876314703401 H 0.0 **** 0.06
1208 H 68.07810981848692 49.09307216838545 99.99732256475204 H 0.0 **** 0.06
1209 H 69.31697863645073 49.381845303557554 98.75262918971782 H 0.0 **** 0.06
1210 H 68.18945993496115 48.015479145783914 98.58458302210252 H 0.0 **** 0.06
1211 C 108.17500228259217 19.65255441504827 22.943560906584054 C 0.0 **** -0.24
1212 H 107.98936609717387 20.558320104921975 22.366656003786346 H 0.0 **** 0.06
1213 H 109.25013509626424 19.482874542127213 23.01657361737523 H 0.0 **** 0.06
1214 H 107.70599377298413 18.803038459553303 22.446955189811206 H 0.0 **** 0.06
1215 H 107.75638531346502 19.765492904936316 23.943551552795725 H 0.0 **** 0.06
1216 C 90.48197773526505 91.89736473349387 117.68857854221183 C 0.0 **** -0.24
1217 H 90.79231649435826 90.94519604675608 117.2580448883909 H 0.0 **** 0.06
1218 H 89.45701602962171 91.81454777859409 118.05040506986796 H 0.0 **** 0.06
1219 H 90.53842253972428 92.67574253699988 116.92814609800524 H 0.0 **** 0.06
1220 H 91.14178344668665 92.1518153576539 118.51902117550553 H 0.0 **** 0.06
1221 C 13.194791461159014 72.22187603198651 7.463708529664977 C 0.0 **** -0.24
1222 H 12.847126759613332 72.01298229340642 8.475672589493012 H 0.0 **** 0.06
1223 H 12.710740307525043 73.1248933614934 7.093426637825996 H 0.0 **** 0.06
1224 H 12.946348866284325 71.38247225309419 6.814681480609199 H 0.0 **** 0.06
1225 H 14.275739259757358 72.36658585843006 7.474223940774419 H 0.0 **** 0.06
1226 C 116.47121135606352 83.39170695417525 62.37880373437205 C 0.0 **** -0.24
1227 H 117.49159497946792 83.04566331577914 62.54562899958716 H 0.0 **** 0.06
1228 H 116.47824752304109 84.21101560430401 61.65985839359306 H 0.0 **** 0.06
1229 H 116.04725994604388 83.736988934604 63.321608119951485 H 0.0 **** 0.06
1230 H 115.86870436058143 82.57019334105226 61.988644290781515 H 0.0 **** 0.06
1231 C 52.10722468660376 76.86266400492144 62.460551535311204 C 0.0 **** -0.24
1232 H 53.04262281403129 76.47982150122954 62.86853379358423 H 0.0 **** 0.06
1233 H 51.60981927501099 76.07546594849771 61.893659423341155 H 0.0 **** 0.06
1234 H 52.31704198137564 77.70669561662879 61.80358509362372 H 0.0 **** 0.06
1235 H 51.46155780768487 77.18803481543904 63.27643553739882 H 0.0 **** 0.06
1236 C 95.9344840627007 74.97345108276812 102.09584702197702 C 0.0 **** -0.24
1237 H 96.32056876524618 74.19507422061349 101.43696714832839 H 0.0 **** 0.06
1238 H 96.67052152562889 75.77274282141966 102.18380811413621 H 0.0 **** 0.06
1239 H 95.73688611582037 74.55132096610367 103.08103724206805 H 0.0 **** 0.06
1240 H 95.01001059927839 75.37435849763784 101.68019616878388 H 0.0 **** 0.06
1241 C 85.97828847274883 98.79101441384879 87.73196041897663 C 0.0 **** -0.24
1242 H 86.61733038573749 98.46314462895654 86.91185833592931 H 0.0 **** 0.06
1243 H 85.60496137158532 97.91933496470276 88.27104063789173 H 0.0 **** 0.06
1244 H 85.13796183165272 99.35914119519566 87.33323036731716 H 0.0 **** 0.06
1245 H 86.55296825077437 99.42025053219996 88.41124798801087 H 0.0 **** 0.06
1246 C 91.42235904714369 43.86721323915412 88.55458352187225 C 0.0 **** -0.24
1247 H 91.54545368309567 43.35268938250716 87.60128634178568 H 0.0 **** 0.06
1248 H 91.82915209870646 43.25012369578896 89.35568368684869 H 0.0 **** 0.06
1249 H 90.3626148872375 44.04776267890573 88.73571001264287 H 0.0 **** 0.06
1250 H 91.95213885570402 44.819102151078816 88.52357706036696 H 0.0 **** 0.06
1251 C 56.5459031909985 25.87209795599972 76.18185491561235 C 0.0 **** -0.24
1252 H 56.916173721647255 26.755129671466705 76.70304712135601 H 0.0 **** 0.06
1253 H 57.37176798469986 25.183091542316845 76.00203241103452 H 0.0 **** 0.06
1254 H 56.10625265372559 26.169589450342755 75.22977046860512 H 0.0 **** 0.06
1255 H 55.788290118749046 25.380787987820952 76.79339689291282 H 0.0 **** 0.06
1256 C 26.79427122526451 80.6331876765901 23.91406238283335 C 0.0 **** -0.24
1257 H 25.78714782314742 80.99842612406829 23.7130576603912 H 0.0 **** 0.06
1258 H 27.43870533775987 81.47214473419297 24.177896303020816 H 0.0 **** 0.06
1259 H 27.185251705542385 80.13894252524463 23.02542776260057 H 0.0 **** 0.06
1260 H 26.764186707616687 79.9230285478198 24.741523324163012 H 0.0 **** 0.06
1261 C 10.600746954829884 105.0456276296911 57.01091133870768 C 0.0 **** -0.24
1262 H 11.364021393115333 105.25311001011983 57.76139238921494 H 0.0 **** 0.06
1263 H 9.939350067266648 105.9078426782572 56.91764279258481 H 0.0 **** 0.06
1264 H 10.020790501613497 104.17344233668516 57.31444710262483 H 0.0 **** 0.06
1265 H 11.078435792193083 104.84807818662134 56.05108313341153 H 0.0 **** 0.06
1266 C 18.18942949699806 97.39804776364556 75.50821708548852 C 0.0 **** -0.24
1267 H 17.172733330693234 97.74477362777674 75.3203721690686 H 0.0 **** 0.06
1268 H 18.881580434869306 98.23379260082118 75.40864712145441 H 0.0 **** 0.06
1269 H 18.447651603593727 96.62254116702255 74.78613501755896 H 0.0 **** 0.06
1270 H 18.25297526338079 96.99016160766288 76.5170532426014 H 0.0 **** 0.06
1271 C 23.299334563730646 84.80577388666092 94.67341367460148 C 0.0 **** -0.24
1272 H 23.22736416031178 85.46778971753687 93.81073363883701 H 0.0 **** 0.06
1273 H 23.69859933763538 83.84189277713463 94.35745097350278 H 0.0 **** 0.06
1274 H 22.30916471852346 84.66461769320335 95.10738280985504 H 0.0 **** 0.06
1275 H 23.962260427843113 85.24849159409942 95.41670694833309 H 0.0 **** 0.06
1276 C 50.95633611466582 78.11646860955096 35.61793011532228 C 0.0 **** -0.24
1277 H 50.26463803718423 77.39245647752722 35.18954750914915 H 0.0 **** 0.06
1278 H 51.260668917966484 78.82750196578675 34.84946754848451 H 0.0 **** 0.06
1279 H 51.83563440263566 77.59769587135924 36.00120677764389 H 0.0 **** 0.06
1280 H 50.46597098220957 78.64953876760916 36.432394850710835 H 0.0 **** 0.06
1281 C 116.78133855903468 42.94747252087228 16.521687808406085 C 0.0 **** -0.24
1282 H 117.79639251266912 43.2975909024982 16.709192895552604 H 0.0 **** 0.06
1283 H 116.77861283023199 42.29325480516849 15.649606192164157 H 0.0 **** 0.06
1284 H 116.13087692340471 43.80274555754585 16.33659781315319 H 0.0 **** 0.06
1285 H 116.42073143235194 42.397531817650815 17.389978193408382 H 0.0 **** 0.06
1286 C 47.61194823276584 85.23126466184979 76.3932071296785 C 0.0 **** -0.24
1287 H 46.62123418757369 84.79844655650814 76.53265155798138 H 0.0 **** 0.06
1288 H 47.60717852784681 85.87286053534652 75.51111889679939 H 0.0 **** 0.06
1289 H 48.341496091527006 84.43327419723582 76.25925697790146 H 0.0 **** 0.06
1290 H 47.876243388829074 85.82193862141912 77.27088415998611 H 0.0 **** 0.06
1291 C 80.9632003461619 116.54686000323744 97.02048371417797 C 0.0 **** -0.24
1292 H 81.64899464538325 116.27974348398996 97.82490683177133 H 0.0 **** 0.06
1293 H 81.36117204844408 117.40262319137824 96.47359564651791 H 0.0 **** 0.06
1294 H 79.99111590242788 116.8037039162551 97.44128960945534 H 0.0 **** 0.06
1295 H 80.85391182548855 115.70109242927057 96.3416989219142 H 0.0 **** 0.06
1296 C 109.47361009289777 3.9868585053067136 3.282606179710653 C 0.0 **** -0.24
1297 H 109.74759905586754 4.996009555872149 3.5910665562252007 H 0.0 **** 0.06
1298 H 108.84752554426015 3.530850940725628 4.049128046200535 H 0.0 **** 0.06
1299 H 110.37576231402994 3.3904100362705663 3.146671771955093 H 0.0 **** 0.06
1300 H 108.92357967686928 4.0321234330648394 2.3424821371951587 H 0.0 **** 0.06
1301 C 42.13555325242433 97.78637487233755 118.72569582567291 C 0.0 **** -0.24
1302 H 43.05674728290449 97.85176246024875 118.14684128293592 H 0.0 **** 0.06
1303 H 42.336568441446936 97.27990901939813 119.67000130249663 H 0.0 **** 0.06
1304 H 41.391324952728574 97.22515957617657 118.16189788601079 H 0.0 **** 0.06
1305 H 41.76044962043371 98.79082726306027 118.92379497821854 H 0.0 **** 0.06
1306 C 91.94563076009882 31.086326521733582 85.19673669841688 C 0.0 **** -0.24
1307 H 92.35872022983418 30.499900485991702 84.37643180086769 H 0.0 **** 0.06
1308 H 91.95019915903947 32.14247086944141 84.92734885235359 H 0.0 **** 0.06
1309 H 92.55227951512029 30.936509252019704 86.0910530685291 H 0.0 **** 0.06
1310 H 90.92305488304703 30.765331065916968 85.39345736591335 H 0.0 **** 0.06
1311 C 23.196601401430684 115.46894848738822 5.764857568991744 C 0.0 **** -0.24
1312 H 22.370515302143616 115.78614985014926 5.128512054726627 H 0.0 **** 0.06
1313 H 23.46896278144544 116.28082923241266 6.439533437926556 H 0.0 **** 0.06
1314 H 24.05465832514389 115.21020742439752 5.143415678619505 H 0.0 **** 0.06
1315 H 22.894159669672945 114.59907498504714 6.346870100654826 H 0.0 **** 0.06
1316 C 7.931851948896821 4.2337855659255865 76.09170016360306 C 0.0 **** -0.24
1317 H 8.533776251067593 3.3331249414580384 75.96470318452376 H 0.0 **** 0.06
1318 H 7.265404185144405 4.106358968473103 76.94535142067824 H 0.0 **** 0.06
1319 H 7.341472443922228 4.405624534070398 75.191417426545 H 0.0 **** 0.06
1320 H 8.587956899399572 5.086802803854027 76.26566990538035 H 0.0 **** 0.06
1321 C 27.729795555149508 28.666967654220088 39.119506670262126 C 0.0 **** -0.24
1322 H 28.730214869288716 28.432183228127826 38.75679879296905 H 0.0 **** 0.06
1323 H 27.719017421976105 29.678787774627637 39.52653926236519 H 0.0 **** 0.06
1324 H 27.45075000581261 27.958106310057502 39.90051875457539 H 0.0 **** 0.06
1325 H 27.019826390545177 28.597950276227408 38.296382831707376 H 0.0 **** 0.06
1326 C 76.53713940404 37.420789286193624 14.522908543400376 C 0.0 **** -0.24
1327 H 75.7028200537363 38.1214063316728 14.551007038744359 H 0.0 **** 0.06
1328 H 76.8748986282076 37.21845482113966 15.539934656021615 H 0.0 **** 0.06
1329 H 77.35529681548098 37.853762227890215 13.946905521032903 H 0.0 **** 0.06
1330 H 76.21438613801513 36.49119350648277 14.055168737471377 H 0.0 **** 0.06
1331 C 107.46421464392435 18.748444555887517 117.97406310852573 C 0.0 **** -0.24
1332 H 106.72708503269459 18.145122047081145 117.44529152381777 H 0.0 **** 0.06
1333 H 108.11593395273539 19.23992768278802 117.2514007578941 H 0.0 **** 0.06
1334 H 108.05926818484761 18.108696264796222 118.62418913890417 H 0.0 **** 0.06
1335 H 106.95368377784018 19.501788678863136 118.57430927267805 H 0.0 **** 0.06
1336 C 102.5195616984625 75.24281165888036 3.0237714203857298 C 0.0 **** -0.24
1337 H 102.33031334194044 74.31770782982639 3.5666557837178914 H 0.0 **** 0.06
1338 H 103.31429684893823 75.79918959124291 3.520878266382679 H 0.0 **** 0.06
1339 H 101.6115932472843 75.84556884808549 3.004390204713406 H 0.0 **** 0.06
1340 H 102.82268349089242 75.0100303931485 2.0033280912995632 H 0.0 **** 0.06
1341 C 105.13224039046426 54.329392953711256 51.35504161190978 C 0.0 **** -0.24
1342 H 105.8840150315975 53.53979702722546 51.379755929993266 H 0.0 **** 0.06
1343 H 105.57163946834885 55.23623097594271 50.940356455044345 H 0.0 **** 0.06
1344 H 104.77882306545936 54.52556312815985 52.36830818245217 H 0.0 **** 0.06
1345 H 104.29434738168851 54.013971058496715 50.73271698080136 H 0.0 **** 0.06
1346 C 73.45710920855461 22.186320961198163 61.160318795558 C 0.0 **** -0.24
1347 H 72.50192044995552 22.704270676049646 61.24642393910074 H 0.0 **** 0.06
1348 H 73.36616376024074 21.37331882905832 60.43926949803557 H 0.0 **** 0.06
1349 H 73.73839489060614 21.780334476117275 62.131798021144675 H 0.0 **** 0.06
1350 H 74.22195590850464 22.88645964625286 60.824219228273535 H 0.0 **** 0.06
1351 C 36.4491680085076 111.19690247905562 115.0971183473448 C 0.0 **** -0.24
1352 H 37.33938727134819 111.80747570473045 115.2467764412911 H 0.0 **** 0.06
1353 H 35.68295528433171 111.78973954366387 114.59485845100244 H 0.0 **** 0.06
1354 H 36.07295302370406 110.85997730281035 116.0627602302232 H 0.0 **** 0.06
1355 H 36.70009804519563 110.3318365966679 114.48254470820689 H 0.0 **** 0.06
1356 C 104.13614876540285 83.82303815276845 46.41464610560189 C 0.0 **** -0.24
1357 H 103.3721463317251 83.32370246834128 47.010618195227835 H 0.0 **** 0.06
1358 H 103.97875341705443 84.90091237197805 46.453239363157536 H 0.0 **** 0.06
1359 H 104.07002362465084 83.48320657111205 45.38127225811502 H 0.0 **** 0.06
1360 H 105.12154513372323 83.58380690996924 46.81390536001794 H 0.0 **** 0.06
1361 C 48.140060634778195 99.60284888332112 37.62722489774009 C 0.0 **** -0.24
1362 H 47.40258485424056 99.23772477599397 38.341384807258365 H 0.0 **** 0.06
1363 H 49.07021416857481 99.04811783222172 37.75031198641055 H 0.0 **** 0.06
1364 H 48.32231417784476 100.66370271988461 37.80329148161979 H 0.0 **** 0.06
1365 H 47.764296863739446 99.46229581408997 36.61358195703232 H 0.0 **** 0.06
1366 C 89.52301730108505 17.456148930666735 99.64036710830948 C 0.0 **** -0.24
1367 H 88.5930257123716 17.203815229941313 100.14944263797847 H 0.0 **** 0.06
1368 H 89.54236425766041 16.975427357691228 98.66176601808036 H 0.0 **** 0.06
1369 H 90.36788509851692 17.10745484404515 100.2329186373656 H 0.0 **** 0.06
1370 H 89.58717835289767 18.53643069458647 99.51622949338167 H 0.0 **** 0.06
1371 C 81.36681828479942 97.56953973487873 0.15191145544153528 C 0.0 **** -0.24
1372 H 82.29491469774263 97.17687624947541 0.5669355349687208 H 0.0 **** 0.06
1373 H 80.6044689621142 96.79015652070427 0.1662267227578269 H 0.0 **** 0.06
1374 H 81.53677250997666 97.89405707242747 -0.8737349327752924 H 0.0 **** 0.06
1375 H 81.03178219710716 98.41713510030911 0.7503523685054745 H 0.0 **** 0.06
1376 C 13.188427085603053 78.57764355458389 63.417781967334435 C 0.0 **** -0.24
1377 H 13.92269514334032 78.78747507100022 64.19523916550756 H 0.0 **** 0.06
1378 H 12.87706286817891 77.53489224547323 63.48477181364231 H 0.0 **** 0.06
1379 H 13.631500133417461 78.7629124631753 62.43935401052593 H 0.0 **** 0.06
1380 H 12.321782933834811 79.22518565566432 63.553357590031226 H 0.0 **** 0.06
1381 C 115.28433024683251 88.11741669712393 29.73643666675366 C 0.0 **** -0.24
1382 H 115.53465526403573 88.30048777164805 30.78082206847546 H 0.0 **** 0.06
1383 H 114.23692548073048 88.36785145623423 29.56438338661259 H 0.0 **** 0.06
1384 H 115.44848412378721 87.065241343651 29.50338278247009 H 0.0 **** 0.06
1385 H 115.91597016797735 88.73425744925899 29.097111185194557 H 0.0 **** 0.06
1386 C 112.3456874791616 114.74974936487854 92.29948718517039 C 0.0 **** -0.24
1387 H 111.76866714523152 115.59633094252766 91.928344766847 H 0.0 **** 0.06
1388 H 112.40792555553571 113.98457055847595 91.52552633215527 H 0.0 **** 0.06
1389 H 111.85656010744754 114.33578450545339 93.18150595253144 H 0.0 **** 0.06
1390 H 113.34951684479404 115.0819145851785 92.56348608085503 H 0.0 **** 0.06
1391 C 79.78230123468404 86.67587374360414 26.490116755860868 C 0.0 **** -0.24
1392 H 79.68371873834235 87.53840582423118 27.149364419008407 H 0.0 **** 0.06
1393 H 80.76142103535364 86.2182616722099 26.634235530886485 H 0.0 **** 0.06
1394 H 79.67859421888372 86.99680020955714 25.45360451387478 H 0.0 **** 0.06
1395 H 79.00376123102185 85.94963364332517 26.72464900341049 H 0.0 **** 0.06
1396 C 1.3277788803531507 72.26918552536395 50.83541414562188 C 0.0 **** -0.24
1397 H 1.8850660781992303 72.99786532880387 51.42370681498147 H 0.0 **** 0.06
1398 H 2.008217612776974 71.49954650441586 50.471046915761406 H 0.0 **** 0.06
1399 H 0.8572158948439323 72.76964542673966 49.98882453881771 H 0.0 **** 0.06
1400 H 0.5596971653473588 71.81007234913304 51.45815419195134 H 0.0 **** 0.06
1401 C 106.23431179602258 111.7910944380174 5.0357650540613434 C 0.0 **** -0.24
1402 H 106.60663073195087 110.9698075536232 5.64947844872151 H 0.0 **** 0.06
1403 H 105.54078973583597 111.40088882463301 4.289660231581664 H 0.0 **** 0.06
1404 H 107.07062155371545 112.27915492886386 4.536575270653927 H 0.0 **** 0.06
1405 H 105.71859949422134 112.51239305169636 5.670360003643381 H 0.0 **** 0.06
1406 C 48.42004733356137 2.3866314742775128 97.1267826931066 C 0.0 **** -0.24
1407 H 48.712769075857864 2.780224522435411 98.09997848037682 H 0.0 **** 0.06
1408 H 47.87765552088456 3.1535960465951955 96.57359370602359 H 0.0 **** 0.06
1409 H 47.77822628052408 1.5160226628212499 97.26502760403977 H 0.0 **** 0.06
1410 H 49.310647067816035 2.0959378521688787 96.56933770123064 H 0.0 **** 0.06
1411 C 112.12094117475189 82.60744682042503 19.895626358363998 C 0.0 **** -0.24
1412 H 112.92220085484212 82.0512512550882 19.408342017141948 H 0.0 **** 0.06
1413 H 111.78217287686076 83.40758851606626 19.237336232225587 H 0.0 **** 0.06
1414 H 112.49089275700088 83.03463584448997 20.82832781278097 H 0.0 **** 0.06
1415 H 111.29007570482918 81.93494787039944 20.109306753015005 H 0.0 **** 0.06
1416 C 26.837055236132073 62.307254871495694 3.059449637583782 C 0.0 **** -0.24
1417 H 27.623061179472472 61.65212419978831 3.433508403143861 H 0.0 **** 0.06
1418 H 26.68296542867978 62.11995048188229 1.9968504860745355 H 0.0 **** 0.06
1419 H 27.130547820131312 63.347266144902996 3.20644044555317 H 0.0 **** 0.06
1420 H 25.912137767790114 62.110993364937976 3.601173394807077 H 0.0 **** 0.06
1421 C 6.571661678629198 102.82622528704198 16.610311150709393 C 0.0 **** -0.24
1422 H 5.608844113042039 103.33487163465006 16.661680536469458 H 0.0 **** 0.06
1423 H 6.6712537354612635 102.33450978478695 15.642207383235753 H 0.0 **** 0.06
1424 H 6.63037147258467 102.08179342141 17.403824149397465 H 0.0 **** 0.06
1425 H 7.373359307369256 103.55377360040515 16.734560483806973 H 0.0 **** 0.06
1426 C 58.09063575372574 53.74354133059231 70.78064714765773 C 0.0 **** -0.24
1427 H 58.66240321029617 53.031918896863516 71.37614697754591 H 0.0 **** 0.06
1428 H 58.47031784629737 54.75171793716427 70.95438017122098 H 0.0 **** 0.06
1429 H 57.0404915826003 53.6963434940391 71.06699150349456 H 0.0 **** 0.06
1430 H 58.18982308587598 53.49548028718101 69.72331501790353 H 0.0 **** 0.06
1431 C 47.929380972938105 86.84853949777968 30.443127781966396 C 0.0 **** -0.24
1432 H 48.507761515609076 86.16758916294498 31.067962311892728 H 0.0 **** 0.06
1433 H 48.234992676422905 87.87606800357005 30.647091956566015 H 0.0 **** 0.06
1434 H 46.868749266144704 86.73343849617834 30.6663669061749 H 0.0 **** 0.06
1435 H 48.108320911051464 86.61763873954246 29.39292736462626 H 0.0 **** 0.06
1436 C 30.02201310186996 5.163084436467159 54.89164228548615 C 0.0 **** -0.24
1437 H 30.428878486261112 5.105979309515817 55.901292788420285 H 0.0 **** 0.06
1438 H 30.499815660417994 5.982267481212318 54.35422770859367 H 0.0 **** 0.06
1439 H 28.947630997052386 5.338142173078722 54.94263658061198 H 0.0 **** 0.06
1440 H 30.213376833207064 4.225655430215227 54.36989299581148 H 0.0 **** 0.06
1441 C 24.15195148663969 84.74443211615346 23.832552887121295 C 0.0 **** -0.24
1442 H 23.861779800753425 85.78297369719405 23.6679003730587 H 0.0 **** 0.06
1443 H 24.40410231754059 84.6006359258601 24.88365623139262 H 0.0 **** 0.06
1444 H 25.01857952849585 84.50802211341477 23.215195847299157 H 0.0 **** 0.06
1445 H 23.3234742796065 84.08908613391381 23.563676088471624 H 0.0 **** 0.06
1446 C 31.06089371604324 57.106200813770016 61.205257275790835 C 0.0 **** -0.24
1447 H 32.06675893616293 57.14319428053574 61.621730711496575 H 0.0 **** 0.06
1448 H 31.080713830681333 56.56816804032897 60.2560999530673 H 0.0 **** 0.06
1449 H 30.698404572269283 58.12111292964724 61.039659474727124 H 0.0 **** 0.06
1450 H 30.397585093847255 56.59217618504658 61.90071676995222 H 0.0 **** 0.06
1451 C 113.68402677707077 13.348920342065071 85.64668220570832 C 0.0 **** -0.24
1452 H 113.67974293558827 12.268940886314795 85.79227259665015 H 0.0 **** 0.06
1453 H 114.43907214337894 13.612881281561272 84.90593750739924 H 0.0 **** 0.06
1454 H 113.91437528405964 13.842166254676158 86.5912983374767 H 0.0 **** 0.06
1455 H 112.70368976138693 13.67206475864748 85.29773444332506 H 0.0 **** 0.06
1456 C 115.33952232315835 58.78458737831468 44.49031426238227 C 0.0 **** -0.24
1457 H 115.22300888499905 58.903429382175915 43.4131272953899 H 0.0 **** 0.06
1458 H 114.94312068800652 59.66361260444259 44.998569087298065 H 0.0 **** 0.06
1459 H 116.39684662403481 58.67219222957772 44.73077057686568 H 0.0 **** 0.06
1460 H 114.79556988035459 57.8982361727229 44.81865390394489 H 0.0 **** 0.06
1461 C 97.71975471410826 94.9375380280517 104.11648156253025 C 0.0 **** -0.24
1462 H 96.99405189834349 94.49292561211442 104.79781981774167 H 0.0 **** 0.06
1463 H 97.19497001099771 95.49901646381326 103.3435400703234 H 0.0 **** 0.06
1464 H 98.31442362251832 94.14920037489262 103.65454950495621 H 0.0 **** 0.06
1465 H 98.3752274917205 95.60831314827735 104.67211341664296 H 0.0 **** 0.06
1466 C 4.8311229127527895 48.09538465880448 47.835723561047885 C 0.0 **** -0.24
1467 H 3.919964509551093 48.31839066017746 48.390937270145244 H 0.0 **** 0.06
1468 H 5.677560347935369 48.59050327137345 48.312386794644965 H 0.0 **** 0.06
1469 H 4.7283611397729 48.45492274540297 46.81121439552996 H 0.0 **** 0.06
1470 H 4.996820802392506 47.01832518001186 47.82768446920571 H 0.0 **** 0.06
1471 C 84.76840820083441 1.4080927552970195 69.54881944015568 C 0.0 **** -0.24
1472 H 85.47434696432842 2.072480987854277 70.04737868512728 H 0.0 **** 0.06
1473 H 85.25726122007262 0.4604264209272202 69.32479764951267 H 0.0 **** 0.06
1474 H 84.4271031312199 1.869691968958378 68.62195504007605 H 0.0 **** 0.06
1475 H 83.91366958765454 1.2311932528736378 70.20269948739303 H 0.0 **** 0.06
1476 C 69.83236714023093 24.12383724054655 15.018170576945465 C 0.0 **** -0.24
1477 H 68.82706763295124 23.98598995847931 14.62070665698252 H 0.0 **** 0.06
1478 H 69.86791896790686 23.76842715244885 16.048282387215494 H 0.0 **** 0.06
1479 H 70.09267669396507 25.182687935630867 14.989225659482685 H 0.0 **** 0.06
1480 H 70.54290042438248 23.55884241304139 14.413802362566287 H 0.0 **** 0.06
1481 C 95.53272104500908 77.57717868708147 43.45660473264127 C 0.0 **** -0.24
1482 H 96.4355244669562 77.54810253859131 42.84623095469175 H 0.0 **** 0.06
1483 H 95.37815781986055 78.5898642092414 43.827479031454914 H 0.0 **** 0.06
1484 H 95.64090075909874 76.89341130470984 44.29908615021441 H 0.0 **** 0.06
1485 H 94.67664807207632 77.27641406737172 42.852608640376616 H 0.0 **** 0.06
1486 C 60.40336099114771 87.21156838142898 77.90112775680694 C 0.0 **** -0.24
1487 H 60.91583020226298 86.25625411888836 77.77842215084024 H 0.0 **** 0.06
1488 H 59.37582953781896 87.11971821139016 77.55017165074099 H 0.0 **** 0.06
1489 H 60.91906332063928 87.97681744431966 77.3212307550088 H 0.0 **** 0.06
1490 H 60.404494197751774 87.49051035900419 78.95480923401254 H 0.0 **** 0.06
1491 C 77.51046259806336 116.46252134310309 4.554072536049901 C 0.0 **** -0.24
1492 H 78.08966767579642 117.37114257748911 4.392767110477649 H 0.0 **** 0.06
1493 H 77.52237804477997 116.20864627742642 5.614311696552292 H 0.0 **** 0.06
1494 H 77.94701800228148 115.64625498086997 3.9786073589921216 H 0.0 **** 0.06
1495 H 76.48252117611017 116.62535159209455 4.231065914432321 H 0.0 **** 0.06
1496 C 50.62076069436602 54.08246502162871 57.6011037978196 C 0.0 **** -0.24
1497 H 51.36912797030884 54.34352764351138 56.85239869174243 H 0.0 **** 0.06
1498 H 49.81863091598782 53.51330299469657 57.129255214062546 H 0.0 **** 0.06
1499 H 50.212119659243825 54.99266963270986 58.03873671937054 H 0.0 **** 0.06
1500 H 51.083683146707635 53.47903725700297 58.38202909183294 H 0.0 **** 0.06
1501 C 19.45363662165056 63.443917136211276 57.87065970536451 C 0.0 **** -0.24
1502 H 20.38733655218232 62.92187551108359 58.08031552067525 H 0.0 **** 0.06
1503 H 19.671974543992462 64.45838954952103 57.53545095362809 H 0.0 **** 0.06
1504 H 18.84775412817001 63.4821406662853 58.776160648244804 H 0.0 **** 0.06
1505 H 18.90814335634323 62.91251297185631 57.08971195926079 H 0.0 **** 0.06
1506 C 10.25061269530238 66.59282163414042 94.95627750793085 C 0.0 **** -0.24
1507 H 10.027391784771709 66.33731206570383 95.99186083251243 H 0.0 **** 0.06
1508 H 10.531972502794304 67.64368519697442 94.89381985932911 H 0.0 **** 0.06
1509 H 9.368899508201679 66.41539552375062 94.33984223442854 H 0.0 **** 0.06
1510 H 11.07375016534101 65.97321910276864 94.59965724873422 H 0.0 **** 0.06
1511 C 95.17080523862052 46.39391975947183 17.36658416211462 C 0.0 **** -0.24
1512 H 96.08314546284578 46.85980352611139 16.994532842030004 H 0.0 **** 0.06
1513 H 95.07280727297359 45.395612708998584 16.939193185763287 H 0.0 **** 0.06
1514 H 94.31079552629177 46.99938271737602 17.08008899458785 H 0.0 **** 0.06
1515 H 95.21782395927653 46.32081723481724 18.453603431618408 H 0.0 **** 0.06
1516 C 96.74361479658236 82.29998470576095 12.521101578186084 C 0.0 **** -0.24
1517 H 97.5241039316052 83.04660741647032 12.66337502573652 H 0.0 **** 0.06
1518 H 96.62900115219347 81.71591986988707 13.434839293618882 H 0.0 **** 0.06
1519 H 97.01915929319105 81.63873077717136 11.699321762770744 H 0.0 **** 0.06
1520 H 95.80273969687818 82.79784277724826 12.286900920185772 H 0.0 **** 0.06
1521 C 97.78462989937358 59.60643060859744 33.350599035007434 C 0.0 **** -0.24
1522 H 97.99521120554434 58.76517796434994 34.009928992640056 H 0.0 **** 0.06
1523 H 98.21859034767655 60.51443435268376 33.77058970469159 H 0.0 **** 0.06
1524 H 96.70649794865693 59.73075016805475 33.25274878215589 H 0.0 **** 0.06
1525 H 98.21925001964553 59.41612108642055 32.368528623962845 H 0.0 **** 0.06
1526 C 47.71907820923681 59.77288640082451 108.38800305008945 C 0.0 **** -0.24
1527 H 47.10379585325009 58.877672263334695 108.29778752662759 H 0.0 **** 0.06
1528 H 48.68247698891628 59.601823834882204 107.90553120568708 H 0.0 **** 0.06
1529 H 47.876098420166585 60.00159778977092 109.44254199042152 H 0.0 **** 0.06
1530 H 47.21475205612745 60.61040795968437 107.90499332293464 H 0.0 **** 0.06
1531 C 110.96682137966494 96.36078227111682 61.1480080331832 C 0.0 **** -0.24
1532 H 110.50503547307758 96.98286372550484 61.91355614009589 H 0.0 **** 0.06
1533 H 111.40662946412414 96.99693816609843 60.380119319644535 H 0.0 **** 0.06
1534 H 110.2122307178972 95.71684365544101 60.697719806880116 H 0.0 **** 0.06
1535 H 111.74562320276021 95.74638275089649 61.60068514537727 H 0.0 **** 0.06
1536 C 94.79522980631194 51.229815838916835 75.64120452711717 C 0.0 **** -0.24
1537 H 95.38234571813311 51.08819093018653 74.73379289846068 H 0.0 **** 0.06
1538 H 95.28930852440075 50.73076551940824 76.47454031749416 H 0.0 **** 0.06
1539 H 93.80096654984956 50.805267102744494 75.50013521164445 H 0.0 **** 0.06
1540 H 94.70899141498145 52.29533660437143 75.85424445458287 H 0.0 **** 0.06
1541 C 28.052057565634954 57.47883059619091 40.64999830564733 C 0.0 **** -0.24
1542 H 27.638778161623833 56.595847098532495 41.13778192908501 H 0.0 **** 0.06
1543 H 28.02449598681619 58.32187780089274 41.34150566718864 H 0.0 **** 0.06
1544 H 27.460903249917493 57.71601126121286 39.76581425180632 H 0.0 **** 0.06
1545 H 29.082771136330678 57.28218554910077 40.35630495773012 H 0.0 **** 0.06
1546 C 98.1923311459482 10.894993167499223 33.081861761851485 C 0.0 **** -0.24
1547 H 97.32660623482505 10.29070162445359 32.812804860350354 H 0.0 **** 0.06
1548 H 97.92476737358677 11.951129072254076 33.04491363878785 H 0.0 **** 0.06
1549 H 99.00315162422638 10.70145980849341 32.379293912692845 H 0.0 **** 0.06
1550 H 98.51691127141083 10.637351460826352 34.090131108894155 H 0.0 **** 0.06
1551 C 89.49510973546444 73.1479229606621 34.51584996655058 C 0.0 **** -0.24
1552 H 89.82777052408531 72.47006887997901 33.72980657777864 H 0.0 **** 0.06
1553 H 90.15439973452564 73.05490937176467 35.37896105370983 H 0.0 **** 0.06
1554 H 88.47581217169835 72.89172146775292 34.80736313548228 H 0.0 **** 0.06
1555 H 89.52011301980278 74.17314928281684 34.14581561029772 H 0.0 **** 0.06
1556 C 73.380362444605 17.716393300535316 111.68481170731862 C 0.0 **** -0.24
1557 H 74.28923022727531 18.245518206723176 111.40012118130292 H 0.0 **** 0.06
1558 H 73.22254841393908 17.819073490509965 112.75917020091586 H 0.0 **** 0.06
1559 H 73.4806128141795 16.661538105724986 111.43179417115635 H 0.0 **** 0.06
1560 H 72.53032600133258 18.139562859350633 111.14999948529207 H 0.0 **** 0.06
1561 C 82.95439931413199 55.74949852021393 32.97733635188374 C 0.0 **** -0.24
1562 H 82.53306647698935 55.75267729296888 33.983265366472224 H 0.0 **** 0.06
1563 H 84.03681504205818 55.862711101556556 33.03704955787517 H 0.0 **** 0.06
1564 H 82.53250507374517 56.57560893054938 32.405027516958995 H 0.0 **** 0.06
1565 H 82.7136225116565 54.80673761225023 32.48584984710057 H 0.0 **** 0.06
1566 C 117.84818242609046 76.82859314270479 115.45033809886768 C 0.0 **** -0.24
1567 H 117.01999292301657 76.25437499900943 115.86550701998361 H 0.0 **** 0.06
1568 H 118.78762187751113 76.46174639570171 115.86483128200442 H 0.0 **** 0.06
1569 H 117.72473377351582 77.88079071274453 115.70676601020125 H 0.0 **** 0.06
1570 H 117.85991674322486 76.71744455503608 114.36703816572069 H 0.0 **** 0.06
1571 C 59.76903247484327 54.95929572290743 20.616597066883713 C 0.0 **** -0.24
1572 H 60.34610861160624 54.9047777231778 19.694571919075457 H 0.0 **** 0.06
1573 H 58.78432780309831 54.51926322098882 20.45553887594636 H 0.0 **** 0.06
1574 H 59.65698361389866 56.001163533736985 20.91488388065315 H 0.0 **** 0.06
1575 H 60.28762489439001 54.409860475888934 21.40322052716229 H 0.0 **** 0.06
1576 C 13.660109929994121 64.28301781704556 42.15034648517502 C 0.0 **** -0.24
1577 H 14.042333664959273 63.5646385983236 42.87469571735363 H 0.0 **** 0.06
1578 H 12.915862747123441 64.92043458585545 42.6282550454863 H 0.0 **** 0.06
1579 H 13.20132953421114 63.750324125514055 41.31683067808126 H 0.0 **** 0.06
1580 H 14.48166007478838 64.89681156157201 41.78041109407775 H 0.0 **** 0.06
1581 C 71.11014137432377 104.57453707329955 9.547604215278682 C 0.0 **** -0.24
1582 H 70.93219652916147 105.29721129152767 10.343472376655143 H 0.0 **** 0.06
1583 H 70.32788761005432 104.66308971947032 8.793964364368549 H 0.0 **** 0.06
1584 H 71.10154693492643 103.56646747600979 9.964182529849495 H 0.0 **** 0.06
1585 H 72.07941040924618 104.7696626054761 9.090478366936452 H 0.0 **** 0.06
1586 C 89.41359110703041 65.6881401455993 68.68078158528374 C 0.0 **** -0.24
1587 H 89.51918639992519 64.60272637045998 68.70173950417754 H 0.0 **** 0.06
1588 H 89.67973218964019 66.0589608500461 67.69087022159607 H 0.0 **** 0.06
1589 H 90.07236184698098 66.13153379993935 69.42667144307612 H 0.0 **** 0.06
1590 H 88.3804134256741 65.9556971905422 68.90306900348418 H 0.0 **** 0.06
1591 C 101.91879387868809 80.80379036814548 9.304311309945945 C 0.0 **** -0.24
1592 H 101.4385255072005 79.88716284072407 9.646351983092131 H 0.0 **** 0.06
1593 H 102.98122668446939 80.76847360836572 9.545026536385478 H 0.0 **** 0.06
1594 H 101.46169816383556 81.65996337789761 9.799778580545023 H 0.0 **** 0.06
1595 H 101.79282012149775 80.89895961142918 8.225183386395173 H 0.0 **** 0.06
1596 C 67.98290147622023 78.82975108876721 88.65959045702854 C 0.0 **** -0.24
1597 H 67.71513856088745 79.88021990808008 88.54854174896857 H 0.0 **** 0.06
1598 H 68.50814315923796 78.49143489296361 87.76589590662886 H 0.0 **** 0.06
1599 H 67.07712454948816 78.23728868719559 88.79503834272765 H 0.0 **** 0.06
1600 H 68.62920555829143 78.70916662180477 89.52935940728162 H 0.0 **** 0.06
1601 C 72.48916459250654 41.379847392137506 108.69155468675413 C 0.0 **** -0.24
1602 H 71.99738603402491 40.444172299041185 108.42490780744228 H 0.0 **** 0.06
1603 H 71.76331121194042 42.05537446798745 109.14371238296243 H 0.0 **** 0.06
1604 H 72.9056879693502 41.839183301078634 107.79553720745776 H 0.0 **** 0.06
1605 H 73.29132883006014 41.17846778551737 109.40234820555136 H 0.0 **** 0.06
1606 C 17.08058625658848 24.710670490853232 74.15232617170463 C 0.0 **** -0.24
1607 H 16.042370397882184 24.934289786339924 73.90877379806716 H 0.0 **** 0.06
1608 H 17.72564525870421 25.059074215999125 73.34451405793072 H 0.0 **** 0.06
1609 H 17.201199392974367 23.634507850141837 74.27530988402168 H 0.0 **** 0.06
1610 H 17.353222228140243 25.21553705891487 75.07884596035305 H 0.0 **** 0.06
1611 C 53.702944649529826 12.43444941840411 84.08781118546577 C 0.0 **** -0.24
1612 H 54.49057768370423 12.921046238784367 84.66215972392038 H 0.0 **** 0.06
1613 H 53.754339781066676 11.356621913547624 84.24274986529619 H 0.0 **** 0.06
1614 H 53.83646223576582 12.657376951713559 83.02861148008566 H 0.0 **** 0.06
1615 H 52.73153111765663 12.803924687216202 84.41713682197948 H 0.0 **** 0.06
1616 C 53.19792389679583 70.76144650711569 111.29007500572172 C 0.0 **** -0.24
1617 H 53.23878431844031 71.66436015817385 110.6802160239028 H 0.0 **** 0.06
1618 H 53.943197986829205 70.04995311848097 110.9345440572722 H 0.0 **** 0.06
1619 H 52.20558369591197 70.31678772928169 111.21484823370409 H 0.0 **** 0.06
1620 H 53.404277496564305 71.01645060018672 112.32976375745741 H 0.0 **** 0.06
1621 C 13.646124761397761 30.521140283247178 50.7632645432266 C 0.0 **** -0.24
1622 H 14.688394254400034 30.203132008348234 50.75001378319925 H 0.0 **** 0.06
1623 H 13.007974223980632 29.690062096880183 50.46351883473275 H 0.0 **** 0.06
1624 H 13.51141541038244 31.351667993174487 50.069645240321705 H 0.0 **** 0.06
1625 H 13.377672095977363 30.841443081313514 51.770087202808526 H 0.0 **** 0.06
1626 C 106.1904557450988 101.84223094184455 53.310121839707335 C 0.0 **** -0.24
1627 H 105.19920836536377 101.39052216948971 53.333538312815875 H 0.0 **** 0.06
1628 H 106.12308030625948 102.8814893560484 53.63059183970053 H 0.0 **** 0.06
1629 H 106.58406662697229 101.79977304191988 52.29434263376577 H 0.0 **** 0.06
1630 H 106.85428691311657 101.2966260813117 53.98085583604323 H 0.0 **** 0.06
1631 C 18.90275994618159 52.68585192479674 60.902404329109636 C 0.0 **** -0.24
1632 H 18.084885916047625 52.766148773995496 60.18541818275167 H 0.0 **** 0.06
1633 H 18.551784934313815 52.98844945895462 61.88857003219014 H 0.0 **** 0.06
1634 H 19.72256774822867 53.333070337562674 60.59183384796814 H 0.0 **** 0.06
1635 H 19.25048708690028 51.65267624881193 60.940985801133884 H 0.0 **** 0.06
1636 C 42.06709242875755 55.26708623463938 99.75071404730741 C 0.0 **** -0.24
1637 H 42.49934421712632 54.49234224007225 99.11887419614834 H 0.0 **** 0.06
1638 H 41.29660064899653 54.8299356681168 100.38601506583211 H 0.0 **** 0.06
1639 H 41.62688693469133 56.04263671786754 99.12458619061218 H 0.0 **** 0.06
1640 H 42.8481153648589 55.70336311034106 100.37491460725641 H 0.0 **** 0.06
1641 C 117.53325669295829 98.18257841238872 78.37877363401284 C 0.0 **** -0.24
1642 H 117.58964641067836 99.20632242999966 78.75059084179756 H 0.0 **** 0.06
1643 H 118.42006518243764 97.96318181688329 77.78334902569824 H 0.0 **** 0.06
1644 H 116.64272234779716 98.06932393244318 77.76076671253858 H 0.0 **** 0.06
1645 H 117.48138911084894 97.49260636353557 79.22144138477367 H 0.0 **** 0.06
1646 C 14.11490151006953 99.55749055486692 33.275602226515915 C 0.0 **** -0.24
1647 H 13.233251704073254 100.19683867051623 33.28575422084223 H 0.0 **** 0.06
1648 H 14.626043848608688 99.6282058990108 34.236167408509544 H 0.0 **** 0.06
1649 H 14.788649430699962 99.87887281797836 32.480818107024426 H 0.0 **** 0.06
1650 H 13.81198390428115 98.52466801642035 33.09965287101483 H 0.0 **** 0.06
1651 C 101.00189456775627 4.865089552418198 53.33509967021965 C 0.0 **** -0.24
1652 H 99.91795626405701 4.984360803969096 53.320040917230415 H 0.0 **** 0.06
1653 H 101.46727370529845 5.708713142512082 52.82489569713826 H 0.0 **** 0.06
1654 H 101.27220520236648 3.9389088957221645 52.8262527179692 H 0.0 **** 0.06
1655 H 101.34836748963795 4.826904350754191 54.36729001345677 H 0.0 **** 0.06
1656 C 23.06231998533974 112.65151045966995 85.43967161145474 C 0.0 **** -0.24
1657 H 22.17346734192867 112.15967178655592 85.83700191314398 H 0.0 **** 0.06
1658 H 23.702865435511114 111.91092100281995 84.96028410633778 H 0.0 **** 0.06
1659 H 23.60658132760844 113.13047407955612 86.25313025625672 H 0.0 **** 0.06
1660 H 22.765571440614167 113.40294371781994 84.70876336768134 H 0.0 **** 0.06
1661 C 39.11829815345109 26.071593021868694 64.67965624449113 C 0.0 **** -0.24
1662 H 40.075888422440954 25.890133614888214 65.16802285627216 H 0.0 **** 0.06
1663 H 39.285331553488305 26.3074843701977 63.62909704455139 H 0.0 **** 0.06
1664 H 38.61646512674511 26.90831386643538 65.1653695306386 H 0.0 **** 0.06
1665 H 38.49635597343237 25.179896774359577 64.75896137173427 H 0.0 **** 0.06
1666 C 15.364540998959171 8.973239054466848 27.133332144742027 C 0.0 **** -0.24
1667 H 15.089438685944174 9.16266711411987 28.171489343321554 H 0.0 **** 0.06
1668 H 16.00638466042301 8.09344527519088 27.082822584187994 H 0.0 **** 0.06
1669 H 15.89831028818071 9.837068127086205 26.735828298264934 H 0.0 **** 0.06
1670 H 14.46353971088152 8.800782057202383 26.545124019257514 H 0.0 **** 0.06
1671 C 95.3325572361411 81.87386266440677 56.06034994014902 C 0.0 **** -0.24
1672 H 95.32119659358878 80.79158451213056 55.92699487779681 H 0.0 **** 0.06
1673 H 94.34153543488998 82.21328869636696 56.36241178017091 H 0.0 **** 0.06
1674 H 95.61051879742436 82.35269789587684 55.12182891335312 H 0.0 **** 0.06
1675 H 96.05726701317451 82.13658674857163 56.83128015150198 H 0.0 **** 0.06
1676 C 88.53245527579102 69.44574944521767 114.04643141411034 C 0.0 **** -0.24
1677 H 87.51505169088651 69.48891045167096 113.65606528376178 H 0.0 **** 0.06
1678 H 88.50937722734349 69.11256078825579 115.08444699477977 H 0.0 **** 0.06
1679 H 88.98412675680248 70.43609384713409 113.99261335354034 H 0.0 **** 0.06
1680 H 89.1197347457738 68.74618016674029 113.45291382590999 H 0.0 **** 0.06
1681 C 46.463477826393785 27.452011599263273 43.18501501924376 C 0.0 **** -0.24
1682 H 46.96896279522133 27.39313107885181 42.22078235210633 H 0.0 **** 0.06
1683 H 45.40440061423813 27.227526502275055 43.05352532046148 H 0.0 **** 0.06
1684 H 46.574561682274464 28.456439149227464 43.59319785445516 H 0.0 **** 0.06
1685 H 46.90551749914056 26.729023729870818 43.87053674363558 H 0.0 **** 0.06
1686 C 38.327659979626866 67.49305847225315 102.57450386921042 C 0.0 **** -0.24
1687 H 39.03362548371626 68.11923707576295 102.0281901478605 H 0.0 **** 0.06
1688 H 37.53861096646767 67.16143967073418 101.89928596575746 H 0.0 **** 0.06
1689 H 37.89010241783614 68.06791424680176 103.39134035739153 H 0.0 **** 0.06
1690 H 38.848949144431444 66.62583902180887 102.97832874393973 H 0.0 **** 0.06
1691 C 23.982472293365603 81.42673113537776 76.5831705241662 C 0.0 **** -0.24
1692 H 23.312036819741067 81.79360653588125 75.80630743721474 H 0.0 **** 0.06
1693 H 23.452360534358363 80.71091553599078 77.21093328538953 H 0.0 **** 0.06
1694 H 24.324565589971428 82.26310037135985 77.19317894943373 H 0.0 **** 0.06
1695 H 24.84185288059313 80.93952390409811 76.12121732327 H 0.0 **** 0.06
1696 C 85.87936972273664 45.5763191473674 15.877482353057047 C 0.0 **** -0.24
1697 H 86.67042973983621 46.29887707385035 15.67419013643672 H 0.0 **** 0.06
1698 H 85.90955590048307 44.785147455639304 15.128712238783976 H 0.0 **** 0.06
1699 H 84.91166920130246 46.076720432731946 15.840633614081014 H 0.0 **** 0.06
1700 H 86.02781170158013 45.14460959366471 16.867822937214896 H 0.0 **** 0.06
1701 C 68.69337307961948 100.40796160669584 62.425966368409945 C 0.0 **** -0.24
1702 H 67.87521336547468 100.9485644712802 62.900258162122896 H 0.0 **** 0.06
1703 H 69.64519189988036 100.79892031208175 62.786776353536425 H 0.0 **** 0.06
1704 H 68.63379067132877 100.53425172653502 61.34449728960993 H 0.0 **** 0.06
1705 H 68.618866124439 99.34851370092889 62.6718168038814 H 0.0 **** 0.06
1706 C 0.42219035765351975 79.0688808178528 85.80400533945851 C 0.0 **** -0.24
1707 H -0.4174568948760111 79.12749163485691 86.49744308195139 H 0.0 **** 0.06
1708 H 1.090584560145075 79.91319080618442 85.97103039166717 H 0.0 **** 0.06
1709 H 0.05034616847014206 79.09650103467791 84.78038210914963 H 0.0 **** 0.06
1710 H 0.9639521410912266 78.13783868978922 85.96888790848561 H 0.0 **** 0.06
1711 C 58.611041503749895 36.37695543233298 20.487797471891966 C 0.0 **** -0.24
1712 H 59.651576403502624 36.43156344095249 20.809094383286094 H 0.0 **** 0.06
1713 H 58.513738363473884 35.629790889921395 19.69961166583613 H 0.0 **** 0.06
1714 H 58.296667164061 37.349452416490095 20.107517281079552 H 0.0 **** 0.06
1715 H 57.98398706624729 36.09657799000925 21.33371812406854 H 0.0 **** 0.06
1716 C 100.88413282183018 112.46833325335031 72.92016603077968 C 0.0 **** -0.24
1717 H 101.00598980253983 113.34620771716662 73.5548209628459 H 0.0 **** 0.06
1718 H 99.98946958348228 112.58377835624137 72.30720211035879 H 0.0 **** 0.06
1719 H 100.78494136462336 111.58057478814811 73.54460539404147 H 0.0 **** 0.06
1720 H 101.75613053667547 112.36277215184478 72.27403565587258 H 0.0 **** 0.06
1721 C 39.68555654003492 16.843614572336577 26.108200063423652 C 0.0 **** -0.24
1722 H 40.287273055414346 17.75310629166441 26.1293828294869 H 0.0 **** 0.06
1723 H 40.30462203150009 15.992496110529657 26.394853077934627 H 0.0 **** 0.06
1724 H 39.29717926839302 16.688425647799306 25.101762262919806 H 0.0 **** 0.06
1725 H 38.855881934476 16.941496580917033 26.807442266781322 H 0.0 **** 0.06
1726 C 97.43856134169826 54.55425206117113 3.056434808735389 C 0.0 **** -0.24
1727 H 97.30416288129129 53.5094631362455 3.3380529462405946 H 0.0 **** 0.06
1728 H 97.6326557690277 54.6183742528024 1.9851438371183008 H 0.0 **** 0.06
1729 H 98.28226580800785 54.97222067811319 3.605040808459009 H 0.0 **** 0.06
1730 H 96.53495016480636 55.11360094947017 3.2961829241175735 H 0.0 **** 0.06
1731 C 29.880437907736166 92.74280989297299 76.9507895621297 C 0.0 **** -0.24
1732 H 30.587719719758724 91.9519679270459 77.19982965717384 H 0.0 **** 0.06
1733 H 29.292130215584677 92.4425700464999 76.082643969511 H 0.0 **** 0.06
1734 H 30.426124245759638 93.65818697184972 76.72115765722023 H 0.0 **** 0.06
1735 H 29.217357803561555 92.91642672698248 77.7972589565803 H 0.0 **** 0.06
1736 C 6.491226223897973 57.87444300606116 29.857696974671796 C 0.0 **** -0.24
1737 H 6.036871961303936 58.66820582888308 29.265405401386772 H 0.0 **** 0.06
1738 H 7.235802600358383 58.302900704374686 30.52917119847126 H 0.0 **** 0.06
1739 H 6.9724873276510735 57.1567515601651 29.192871176489632 H 0.0 **** 0.06
1740 H 5.721287412615769 57.3700639080264 30.441729964367482 H 0.0 **** 0.06
1741 C 29.71084398510223 48.094963077714624 89.49672134152783 C 0.0 **** -0.24
1742 H 28.96065663448232 47.3235476017183 89.66692004042196 H 0.0 **** 0.06
1743 H 29.21659807893394 49.031528109642124 89.23601159763572 H 0.0 **** 0.06
1744 H 30.36656077922025 47.79003424453214 88.68154748038671 H 0.0 **** 0.06
1745 H 30.299699860319933 48.23478487273877 90.40339559843338 H 0.0 **** 0.06
1746 C 42.32524594382087 35.698878160326444 45.79621188373165 C 0.0 **** -0.24
1747 H 42.63020372805378 35.265694967317984 46.7479705432779 H 0.0 **** 0.06
1748 H 42.20112103277525 36.776210719976234 45.9105718059181 H 0.0 **** 0.06
1749 H 41.38055385786765 35.25495219534508 45.48143228038347 H 0.0 **** 0.06
1750 H 43.08902137305098 35.49942598946308 45.043690407780794 H 0.0 **** 0.06
1751 C 24.136839675249597 44.65198665121869 111.34160666059499 C 0.0 **** -0.24
1752 H 24.054968091840053 43.62184624909486 110.99554403828367 H 0.0 **** 0.06
1753 H 23.454074035287853 45.28226796730445 110.77114355348833 H 0.0 **** 0.06
1754 H 25.15964016211359 45.00267092524649 111.19874184442645 H 0.0 **** 0.06
1755 H 23.88048118827797 44.70112482732978 112.40013600135548 H 0.0 **** 0.06
1756 C 14.59068669241887 53.05881330094661 10.13869244079499 C 0.0 **** -0.24
1757 H 15.083285925011367 52.87228353586937 9.18417254129286 H 0.0 **** 0.06
1758 H 13.560990904555183 53.37045273475772 9.961223956417108 H 0.0 **** 0.06
1759 H 15.122005145688789 53.84573534696864 10.674211793429286 H 0.0 **** 0.06
1760 H 14.596770420427092 52.145568007020785 10.733601326991444 H 0.0 **** 0.06
1761 C 18.0885979551284 2.636615479478408 115.24142197382878 C 0.0 **** -0.24
1762 H 17.69592229078019 2.1148260490357416 116.11327063781334 H 0.0 **** 0.06
1763 H 17.608711724361186 2.253602079237922 114.34093516317358 H 0.0 **** 0.06
1764 H 19.16443898421429 2.4762421006590927 115.17636056590345 H 0.0 **** 0.06
1765 H 17.885722545854314 3.7039863507686164 115.33526560756496 H 0.0 **** 0.06
1766 C 106.03198240411461 102.77883704680909 28.97571348929955 C 0.0 **** -0.24
1767 H 106.02384324508097 102.12533353401312 29.84809441911625 H 0.0 **** 0.06
1768 H 105.95910877851716 103.81757231628768 29.298623802255065 H 0.0 **** 0.06
1769 H 105.18457607431375 102.53679828557273 28.333914184343 H 0.0 **** 0.06
1770 H 106.95977545295344 102.63437636969167 28.42218775547741 H 0.0 **** 0.06
1771 C 113.51090804090124 71.05895561813156 83.17862866961502 C 0.0 **** -0.24
1772 H 114.11319466260687 70.59173046156093 83.95876079848395 H 0.0 **** 0.06
1773 H 113.1933279842373 72.04807884598699 83.50967815036879 H 0.0 **** 0.06
1774 H 112.6342816979122 70.44295933473603 82.97836534637923 H 0.0 **** 0.06
1775 H 114.10435588506441 71.15251136423217 82.26954643758967 H 0.0 **** 0.06
1776 C 59.00341404267505 52.62368762459556 13.33136211375836 C 0.0 **** -0.24
1777 H 58.726219573450436 52.124614681332844 12.403033524596054 H 0.0 **** 0.06
1778 H 58.139439581197024 52.66178846755105 13.995575243931768 H 0.0 **** 0.06
1779 H 59.33887632174765 53.637108018146705 13.112767306404379 H 0.0 **** 0.06
1780 H 59.808860455672516 52.070151275772446 13.814937555243318 H 0.0 **** 0.06
1781 C 98.52790452179863 99.31388958170237 8.678796249556711 C 0.0 **** -0.24
1782 H 98.8072067354023 99.392612662852 9.72947056656841 H 0.0 **** 0.06
1783 H 97.47927282804034 99.59165672934515 8.559595910047747 H 0.0 **** 0.06
1784 H 98.67211831819026 98.28799048466777 8.340642491208342 H 0.0 **** 0.06
1785 H 99.15097728557879 99.98350510110777 8.08636150543498 H 0.0 **** 0.06
1786 C 31.06943418854533 70.13705808219541 31.876560011077515 C 0.0 **** -0.24
1787 H 31.33909900652114 70.74338101203125 32.74239606491628 H 0.0 **** 0.06
1788 H 29.98600715618653 70.02973075898879 31.83203772014258 H 0.0 **** 0.06
1789 H 31.52918495101079 69.15282685338224 31.966486079233732 H 0.0 **** 0.06
1790 H 31.425156490045225 70.6233014290807 30.968158874670564 H 0.0 **** 0.06
1791 C 108.48138578798122 1.9469999787788232 62.86048380844628 C 0.0 **** -0.24
1792 H 108.51833487337638 2.8041450482231003 62.18707772862883 H 0.0 **** 0.06
1793 H 107.53315259957265 1.9494931517375846 63.398577860226105 H 0.0 **** 0.06
1794 H 109.30447681064592 2.0100093130926844 63.57180899582091 H 0.0 **** 0.06
1795 H 108.569591652687 1.0273632072831376 62.28224900370633 H 0.0 **** 0.06
1796 C 114.93529505270733 57.1999897288326 1.9434905381695824 C 0.0 **** -0.24
1797 H 115.24550148564137 58.23832211957565 2.058352857912059 H 0.0 **** 0.06
1798 H 115.78929578462359 56.54447216493808 2.114847064146378 H 0.0 **** 0.06
1799 H 114.5545669631225 57.04503267686761 0.9331687589676516 H 0.0 **** 0.06
1800 H 114.15213580875107 56.97228114946284 2.6656247962433817 H 0.0 **** 0.06
1801 C 90.1883963843166 39.33968861026352 45.179610612424824 C 0.0 **** -0.24
1802 H 91.18548751550765 39.72483907031716 44.96750937657174 H 0.0 **** 0.06
1803 H 89.58714785324054 39.36945219816289 44.270016747993 H 0.0 **** 0.06
1804 H 89.717305344219 39.954645936156 45.94599253401054 H 0.0 **** 0.06
1805 H 90.26295175678675 38.31133935606198 45.53343950611003 H 0.0 **** 0.06
1806 C 80.3048043519442 19.019389623381727 25.902334740549065 C 0.0 **** -0.24
1807 H 79.85316997073733 20.00500505217758 26.012258104111083 H 0.0 **** 0.06
1808 H 79.71811649618306 18.28763627272312 26.459512522440207 H 0.0 **** 0.06
1809 H 81.32309489376732 19.040001694301225 26.29083453996958 H 0.0 **** 0.06
1810 H 80.32310007873912 18.744521843967476 24.8484165970238 H 0.0 **** 0.06
1811 C 114.77024488361789 33.10261917300134 86.7284820361821 C 0.0 **** -0.24
1812 H 115.43678761682024 33.96268131759305 86.80353901664947 H 0.0 **** 0.06
1813 H 115.17163983528553 32.28061110656681 87.32219111575435 H 0.0 **** 0.06
1814 H 114.69133155058095 32.794089364847835 85.68584373044652 H 0.0 **** 0.06
1815 H 113.783730433953 33.374483441572096 87.103233417111 H 0.0 **** 0.06
1816 C 36.65110749040616 20.366671499209627 53.37285614880187 C 0.0 **** -0.24
1817 H 36.40838206252522 19.30769405955843 53.29219856939055 H 0.0 **** 0.06
1818 H 37.7319248086892 20.4968867113979 53.311688045968054 H 0.0 **** 0.06
1819 H 36.291793347854195 20.750705057443586 54.32745979845677 H 0.0 **** 0.06
1820 H 36.172865835175344 20.91170568762921 52.55880563282982 H 0.0 **** 0.06
1821 C 69.7931947039774 24.323448928425734 114.59705029425423 C 0.0 **** -0.24
1822 H 70.1300030605127 23.352743224268295 114.23200346599155 H 0.0 **** 0.06
1823 H 68.71514609800141 24.409198953881685 114.45958129683795 H 0.0 **** 0.06
1824 H 70.2954930610372 25.114182390678238 114.0389216548862 H 0.0 **** 0.06
1825 H 70.03380085604789 24.416352346750003 115.6553513436797 H 0.0 **** 0.06
1826 C 5.048114117840592 50.6913489261685 61.53532158206724 C 0.0 **** -0.24
1827 H 5.866361768016077 51.30053389942495 61.14904043728757 H 0.0 **** 0.06
1828 H 4.905079203604755 49.824877746627976 60.890358617849415 H 0.0 **** 0.06
1829 H 4.133892786971195 51.284651417049815 61.55679462343369 H 0.0 **** 0.06
1830 H 5.288987275337245 50.35856792466009 62.54533175132076 H 0.0 **** 0.06
1831 C 61.48072257240372 98.34160937159254 66.47575788547675 C 0.0 **** -0.24
1832 H 62.17367903567995 97.56453123744052 66.79489633976681 H 0.0 **** 0.06
1833 H 61.98454316566671 99.30908911833541 66.4989624681289 H 0.0 **** 0.06
1834 H 60.6235549827509 98.362835133202 67.14808273784448 H 0.0 **** 0.06
1835 H 61.1415164238538 98.13289258281344 65.4616952678825 H 0.0 **** 0.06
1836 C 5.206758924905557 73.85683760520942 72.06343182353342 C 0.0 **** -0.24
1837 H 6.0284311890904405 74.56160480983368 71.93966837350214 H 0.0 **** 0.06
1838 H 4.684954439581233 74.06720155839824 72.99748412789782 H 0.0 **** 0.06
1839 H 5.6007883344525595 72.84011791697577 72.08769197456297 H 0.0 **** 0.06
1840 H 4.513169714795694 73.9576738826164 71.22830030351025 H 0.0 **** 0.06
1841 C 72.32973233005328 115.75466006706208 91.6689030538935 C 0.0 **** -0.24
1842 H 72.19155617434183 114.89173036831883 91.01729713955649 H 0.0 **** 0.06
1843 H 71.74172327685727 115.62292979500987 92.57680614156968 H 0.0 **** 0.06
1844 H 72.00314271372179 116.65736897350172 91.15129847376264 H 0.0 **** 0.06
1845 H 73.38522994335545 115.84762679013343 91.9286118654642 H 0.0 **** 0.06
1846 C 76.36913818040014 61.6594548328755 40.27423291942427 C 0.0 **** -0.24
1847 H 76.05182025967093 61.08526338240148 39.40322135810437 H 0.0 **** 0.06
1848 H 75.81782166896156 62.599026749215454 40.30826637084551 H 0.0 **** 0.06
1849 H 77.43712419119947 61.86639211886077 40.20299786896825 H 0.0 **** 0.06
1850 H 76.16948360825978 61.08613372604222 41.17914423538305 H 0.0 **** 0.06
1851 C 92.46530901679012 5.310093556619492 71.07290684507225 C 0.0 **** -0.24
1852 H 91.7776356381687 5.57378793584617 71.87712897380402 H 0.0 **** 0.06
1853 H 92.69180750419946 4.2459228408260685 71.12438104245498 H 0.0 **** 0.06
1854 H 93.38535022552003 5.884451469454973 71.17938082231981 H 0.0 **** 0.06
1855 H 92.00389135360922 5.538152568398644 70.1115882444034 H 0.0 **** 0.06
1856 C 56.41638131782589 115.62940952795125 95.52454985466389 C 0.0 **** -0.24
1857 H 56.131365923127966 115.71892880749826 94.47641194519744 H 0.0 **** 0.06
1858 H 57.214755127199574 116.33773917164959 95.74580749782206 H 0.0 **** 0.06
1859 H 56.7652628819876 114.61508493016277 95.72133883752082 H 0.0 **** 0.06
1860 H 55.55348777801844 115.84467905252325 96.15498490754842 H 0.0 **** 0.06
1861 C 45.72117205640359 48.889312944687134 67.48948047211604 C 0.0 **** -0.24
1862 H 45.04178499438305 48.04895859723115 67.3445653295411 H 0.0 **** 0.06
1863 H 45.629960330176715 49.578435987133304 66.65035272363693 H 0.0 **** 0.06
1864 H 46.74513782294886 48.521870623765864 67.54916932566323 H 0.0 **** 0.06
1865 H 45.46521521669632 49.406425594426736 68.41476001315849 H 0.0 **** 0.06
1866 C 91.26155388247099 106.6326301068161 2.9959203864557935 C 0.0 **** -0.24
1867 H 91.78063934113197 106.29277574944919 2.099348073689413 H 0.0 **** 0.06
1868 H 91.98434402073443 107.04124308639018 3.701390696403365 H 0.0 **** 0.06
1869 H 90.7403899484284 105.7922053107944 3.4531378611887646 H 0.0 **** 0.06
1870 H 90.54003081950347 107.40388931623946 2.725782849726528 H 0.0 **** 0.06
1871 C 8.464609041187757 83.67617111467189 94.51299281313683 C 0.0 **** -0.24
1872 H 9.340622735402718 83.36461809016413 93.94440397262724 H 0.0 **** 0.06
1873 H 8.782738626201791 84.12097177814033 95.45586581829767 H 0.0 **** 0.06
1874 H 7.834464505893806 82.80952342961893 94.71255287163916 H 0.0 **** 0.06
1875 H 7.900292327778217 84.41005028583723 93.93676747975326 H 0.0 **** 0.06
1876 C 81.78025921247269 84.3897296976362 96.3860288049544 C 0.0 **** -0.24
1877 H 80.97117223700133 85.1013502806446 96.22263676433374 H 0.0 **** 0.06
1878 H 82.73458848885497 84.86525584147793 96.15608493335594 H 0.0 **** 0.06
1879 H 81.63961013630853 83.5247628724938 95.7387593648995 H 0.0 **** 0.06
1880 H 81.7762485767326 84.0683539367756 97.42805335531946 H 0.0 **** 0.06
1881 C 41.37128700816153 105.91624871905458 6.154366068964151 C 0.0 **** -0.24
1882 H 41.101633887569854 105.62703503883722 5.1387179020220515 H 0.0 **** 0.06
1883 H 42.45691429615514 105.9390040805356 6.248574068164771 H 0.0 **** 0.06
1884 H 40.959435779074916 105.19458533751941 6.859129887593099 H 0.0 **** 0.06
1885 H 40.96548269695581 106.90545193942589 6.370040623552796 H 0.0 **** 0.06
1886 C 21.490769158090057 2.362591233444345 27.431413594948538 C 0.0 **** -0.24
1887 H 20.515992574077053 2.714617728887445 27.092493872460977 H 0.0 **** 0.06
1888 H 22.02917888796787 1.9212185872341419 26.59250731888136 H 0.0 **** 0.06
1889 H 21.35453255996249 1.6139799014133445 28.211903335120724 H 0.0 **** 0.06
1890 H 22.061556789086985 3.2018523795341167 27.828690288702376 H 0.0 **** 0.06
1891 C 25.74957437721875 100.5518217261606 64.40293765562922 C 0.0 **** -0.24
1892 H 25.863624863313838 100.4564565162014 65.48246000165534 H 0.0 **** 0.06
1893 H 25.97946871462061 101.57514818294857 64.10312732729682 H 0.0 **** 0.06
1894 H 24.724138326288994 100.31257629657301 64.12316446833634 H 0.0 **** 0.06
1895 H 26.43298813194425 99.86445073536888 63.90370287208822 H 0.0 **** 0.06
1896 C 67.51262311279754 57.85472419187454 106.5448637679547 C 0.0 **** -0.24
1897 H 67.43671183461186 57.229830495603636 107.43409481221806 H 0.0 **** 0.06
1898 H 68.4672205375964 57.67069551166898 106.05151521485914 H 0.0 **** 0.06
1899 H 67.44998716048025 58.90408309120977 106.83272692593408 H 0.0 **** 0.06
1900 H 66.69837870764673 57.61590177591003 105.86148436441914 H 0.0 **** 0.06
1901 C 102.59733478937028 93.11690787297286 19.024667297936745 C 0.0 **** -0.24
1902 H 102.06362961169683 92.1998265709299 18.775891860166382 H 0.0 **** 0.06
1903 H 102.26190142332445 93.92124775795972 18.36938001659324 H 0.0 **** 0.06
1904 H 103.66798991454428 92.9618495033236 18.892002061437665 H 0.0 **** 0.06
1905 H 102.3946331703988 93.3847810257081 20.062163641879636 H 0.0 **** 0.06
1906 C 109.04262844014153 56.122064733029674 77.24776418252458 C 0.0 **** -0.24
1907 H 108.72624153519206 57.12555783786928 76.96229349604857 H 0.0 **** 0.06
1908 H 110.12032052562765 56.029192823244955 77.11171576118244 H 0.0 **** 0.06
1909 H 108.53279286240442 55.38865480779543 76.62135197148143 H 0.0 **** 0.06
1910 H 108.79101797799945 55.94448296691712 78.29349477788378 H 0.0 **** 0.06
1911 C 98.04361200997042 0.5735148032350423 106.03837093857507 C 0.0 **** -0.24
1912 H 98.47102838296485 -0.25475876421312194 105.47194636632125 H 0.0 **** 0.06
1913 H 98.83883820972096 1.100100582466041 106.56608419485192 H 0.0 **** 0.06
1914 H 97.32268384026682 0.18713382657873012 106.7584541641366 H 0.0 **** 0.06
1915 H 97.54334427809005 1.2600325172721512 105.3557735759295 H 0.0 **** 0.06
1916 C 1.7436351912541284 50.651914380415235 11.638990799362773 C 0.0 **** -0.24
1917 H 2.7015687149712484 51.168841891397705 11.584724200249127 H 0.0 **** 0.06
1918 H 0.9729167108195629 51.26601232563695 11.170769229278022 H 0.0 **** 0.06
1919 H 1.4836552355603256 50.475817541027595 12.683397793859541 H 0.0 **** 0.06
1920 H 1.815554687999322 49.69750393867258 11.117201687217943 H 0.0 **** 0.06
1921 C 33.244020809615826 113.32805700357814 65.55105304218657 C 0.0 **** -0.24
1922 H 32.24608988327708 112.90206015529351 65.4467739587798 H 0.0 **** 0.06
1923 H 33.62441301474275 113.60788731445133 64.56825988873351 H 0.0 **** 0.06
1924 H 33.90830564320412 112.5911285773918 66.00305166527662 H 0.0 **** 0.06
1925 H 33.19574786526489 114.21234183260219 66.18724616351867 H 0.0 **** 0.06
1926 C 47.51686032665022 8.435428616753995 3.0062901064845775 C 0.0 **** -0.24
1927 H 47.83501579596798 7.407140987592726 2.829357001189578 H 0.0 **** 0.06
1928 H 47.92087814750646 8.78048469268488 3.9576535660491654 H 0.0 **** 0.06
1929 H 46.42780825311256 8.477523778945937 3.0357719861022456 H 0.0 **** 0.06
1930 H 47.88407067625206 9.072456381971506 2.202276614581546 H 0.0 **** 0.06
1931 C 99.54001069258354 85.91306823586316 105.81250620842545 C 0.0 **** -0.24
1932 H 99.43799990113226 85.6150038468561 106.85573914371355 H 0.0 **** 0.06
1933 H 98.94692095633363 86.81000878748674 105.63150666567435 H 0.0 **** 0.06
1934 H 99.18726820493828 85.10797210345842 105.16808902117384 H 0.0 **** 0.06
1935 H 100.5878537079299 86.1192882056516 105.5946900031399 H 0.0 **** 0.06
1936 C 14.94894756325101 96.63434992821789 30.805520346235085 C 0.0 **** -0.24
1937 H 14.518868688858447 97.62803505338746 30.928904193270625 H 0.0 **** 0.06
1938 H 14.177266079421202 95.88173683121647 30.971760738413607 H 0.0 **** 0.06
1939 H 15.754262412754201 96.49447312149181 31.526321299986392 H 0.0 **** 0.06
1940 H 15.343553137610002 96.53273443329357 29.794433151771855 H 0.0 **** 0.06
1941 C 41.37775689549133 24.88907882655289 12.785859265463841 C 0.0 **** -0.24
1942 H 42.18764853258955 24.36272777425674 12.281331128552992 H 0.0 **** 0.06
1943 H 41.24162437849097 24.475238462629136 13.785248422834343 H 0.0 **** 0.06
1944 H 40.456728046530486 24.770957197190427 12.214208354778691 H 0.0 **** 0.06
1945 H 41.62400105970255 25.948678746458057 12.861135067047613 H 0.0 **** 0.06
1946 C 76.7713974876699 11.829813805696347 22.5853022186906 C 0.0 **** -0.24
1947 H 77.52956022724388 11.436736597204003 23.2632654828911 H 0.0 **** 0.06
1948 H 76.94328782984527 12.895077297098965 22.427039626272943 H 0.0 **** 0.06
1949 H 75.78360104021314 11.681890472890501 23.021951329473637 H 0.0 **** 0.06
1950 H 76.82979204744942 11.305634004760662 21.632203540035164 H 0.0 **** 0.06
1951 C 16.97459929383433 16.619393193170538 17.611848808351226 C 0.0 **** -0.24
1952 H 17.784701229849986 17.19989046515127 18.053278689209776 H 0.0 **** 0.06
1953 H 16.05765787110738 17.209454291741935 17.621995351272687 H 0.0 **** 0.06
1954 H 16.826034527059164 15.706014843682254 18.18629111645862 H 0.0 **** 0.06
1955 H 17.23004141817438 16.36392281226773 16.583365076800135 H 0.0 **** 0.06
1956 C 15.663395982160495 96.82557665921473 95.60453794581028 C 0.0 **** -0.24
1957 H 16.12658737328644 95.99399831357795 96.13614192698705 H 0.0 **** 0.06
1958 H 14.782299513647985 97.16063788619141 96.15100066623543 H 0.0 **** 0.06
1959 H 15.37006843071606 96.49891411694526 94.6061145947846 H 0.0 **** 0.06
1960 H 16.375415424932896 97.64680507324391 95.523004085297 H 0.0 **** 0.06
1961 C 3.397868346103536 11.167635188231259 32.96448217794514 C 0.0 **** -0.24
1962 H 3.37813224003375 10.492283614546608 33.8201043697685 H 0.0 **** 0.06
1963 H 4.2526047651439285 11.839732974709904 33.05175699816135 H 0.0 **** 0.06
1964 H 2.477527857857652 11.751145618197683 32.941821011248834 H 0.0 **** 0.06
1965 H 3.483381622636415 10.586956309609974 32.04558494006838 H 0.0 **** 0.06
1966 C 68.86316560218216 52.46677795400143 89.9432064557449 C 0.0 **** -0.24
1967 H 69.36552215164147 51.814539918232754 90.65791481540313 H 0.0 **** 0.06
1968 H 68.75035608197771 51.94626837539681 88.99244974122075 H 0.0 **** 0.06
1969 H 69.45678033517282 53.369478761929315 89.79605885623334 H 0.0 **** 0.06
1970 H 67.87960449527833 52.738036404930995 90.32794275934265 H 0.0 **** 0.06
1971 C 104.30077118815842 12.832314145530045 52.69173371272985 C 0.0 **** -0.24
1972 H 104.43539006433156 11.882050410831958 52.17507990299485 H 0.0 **** 0.06
1973 H 103.9940130198244 13.594145920536114 51.975576398267926 H 0.0 **** 0.06
1974 H 105.24058640259221 13.12770683009106 53.15857642102943 H 0.0 **** 0.06
1975 H 103.53309665438195 12.72240783946254 53.458271405799614 H 0.0 **** 0.06
1976 C 105.29886670799462 116.7123857639551 108.33761155461914 C 0.0 **** -0.24
1977 H 104.59224573291567 115.88384421136206 108.37781381713955 H 0.0 **** 0.06
1978 H 105.91606153963232 116.62117100676645 107.4436663696168 H 0.0 **** 0.06
1979 H 105.93623431918567 116.68903502686649 109.22273864449966 H 0.0 **** 0.06
1980 H 104.75215857930306 117.65475714760709 108.30866421771606 H 0.0 **** 0.06
1981 C 12.776153322033565 49.18424752605219 16.422132636772602 C 0.0 **** -0.24
1982 H 11.84271201995216 48.63900778896746 16.55928763441625 H 0.0 **** 0.06
1983 H 12.921985288971939 49.39301222917757 15.36118869719337 H 0.0 **** 0.06
1984 H 13.605866782187974 48.58285071737015 16.791511751615076 H 0.0 **** 0.06
1985 H 12.732789716054384 50.1231243814035 16.974991996214897 H 0.0 **** 0.06
1986 C 23.55531636116436 25.21289404752281 78.57817659023323 C 0.0 **** -0.24
1987 H 24.367331879716318 24.595629247299343 78.19451332275148 H 0.0 **** 0.06
1988 H 22.60101660274674 24.811221062734802 78.23695177468772 H 0.0 **** 0.06
1989 H 23.671599570438616 26.233483861190763 78.21143239334629 H 0.0 **** 0.06
1990 H 23.582161129242223 25.213219161270317 79.66797053300837 H 0.0 **** 0.06
1991 C 74.71383686258991 58.51821244451037 9.98265745681185 C 0.0 **** -0.24
1992 H 75.33792753471852 57.70307489608825 9.617576468794766 H 0.0 **** 0.06
1993 H 75.28273191821282 59.12226901312005 10.690889597348473 H 0.0 **** 0.06
1994 H 73.83437131559211 58.10795274167134 10.47899393367959 H 0.0 **** 0.06
1995 H 74.40143149544724 59.14026410791945 9.143671638237606 H 0.0 **** 0.06
1996 C 71.18236344836001 21.148641059874507 36.60928397676521 C 0.0 **** -0.24
1997 H 70.21297860689768 20.65067615310437 36.605889025212534 H 0.0 **** 0.06
1998 H 71.24820461946112 21.80743604640395 37.47554127855912 H 0.0 **** 0.06
1999 H 71.29290146601602 21.735287634171783 35.69702154653116 H 0.0 **** 0.06
2000 H 71.97401263853155 20.401891728944676 36.659478528997084 H 0.0 **** 0.06
2001 C 104.7346947535481 8.329091192603528 59.90817137090111 C 0.0 **** -0.24
2002 H 104.88379830359952 8.561954856027228 58.854233438911386 H 0.0 **** 0.06
2003 H 104.61876723741844 7.2517069241131935 60.02933061944318 H 0.0 **** 0.06
2004 H 103.83817045360777 8.834172252260032 60.269005028277554 H 0.0 **** 0.06
2005 H 105.59777773681438 8.66809341271528 60.48097571658878 H 0.0 **** 0.06
2006 C 8.307212076266808 66.62117654534185 5.8120406513081875 C 0.0 **** -0.24
2007 H 8.744411532277411 66.55118418627185 4.815331890098431 H 0.0 **** 0.06
2008 H 9.093040164852908 66.82630277987025 6.539919823231898 H 0.0 **** 0.06
2009 H 7.81880065683373 65.6792881248505 6.060646811574424 H 0.0 **** 0.06
2010 H 7.574428045272896 67.42744992259162 5.831075719562316 H 0.0 **** 0.06
2011 C 47.30233757138882 3.661516014981899 104.55755611775845 C 0.0 **** -0.24
2012 H 46.95849014545908 4.584230523892046 105.02409915403587 H 0.0 **** 0.06
2013 H 46.469294519382885 3.183207263532978 104.04196072513594 H 0.0 **** 0.06
2014 H 47.69063038338993 2.990376264727246 105.32412362251046 H 0.0 **** 0.06
2015 H 48.09156027626301 3.889478685335746 103.84108970833245 H 0.0 **** 0.06
2016 C 79.59995884856792 94.07202045297942 90.87499918741287 C 0.0 **** -0.24
2017 H 78.95871989878918 94.08644105949713 91.75564619741601 H 0.0 **** 0.06
2018 H 79.05357971123175 94.4714424877123 90.02025976653829 H 0.0 **** 0.06
2019 H 79.90460656971621 93.04702733243096 90.66473884779384 H 0.0 **** 0.06
2020 H 80.48391781863987 94.68324240656833 91.05948464776162 H 0.0 **** 0.06
2021 C 111.89900351819972 83.31546416900292 58.82938718453247 C 0.0 **** -0.24
2022 H 111.91199910081738 82.28069172423264 58.48487918782747 H 0.0 **** 0.06
2023 H 112.12194422054759 83.34581221478746 59.895240797628965 H 0.0 **** 0.06
2024 H 110.91299139632514 83.74470758442709 58.651191331198454 H 0.0 **** 0.06
2025 H 112.64912481397948 83.88841898336835 58.28340142685952 H 0.0 **** 0.06
2026 C 17.601042657612805 49.1761003454248 62.82473117372715 C 0.0 **** -0.24
2027 H 16.69581431781425 48.79783310006093 63.29987233563259 H 0.0 **** 0.06
2028 H 17.554377972727575 50.26401626564319 62.76843753210429 H 0.0 **** 0.06
2029 H 17.68315474970126 48.762511459640734 61.81933501429992 H 0.0 **** 0.06
2030 H 18.469945267067107 48.87875523675052 63.41203920582033 H 0.0 **** 0.06
2031 C 41.287626035134224 100.70490013024116 59.15728385849469 C 0.0 **** -0.24
2032 H 40.51879381520163 100.45706189226652 58.42508591659428 H 0.0 **** 0.06
2033 H 41.876708382536805 99.81390083796794 59.37994269455441 H 0.0 **** 0.06
2034 H 40.81587733101833 101.0668697484981 60.07098334037064 H 0.0 **** 0.06
2035 H 41.938640712281966 101.4788326712237 58.75273622886872 H 0.0 **** 0.06
2036 C 109.36610552105697 32.14737184845491 21.557442387083313 C 0.0 **** -0.24
2037 H 109.40795801888657 32.843809146740135 20.71937789834118 H 0.0 **** 0.06
2038 H 108.32903808129885 31.86556627888684 21.74326863590801 H 0.0 **** 0.06
2039 H 109.7777415351041 32.62493754025608 22.446868831414122 H 0.0 **** 0.06
2040 H 109.94838600767139 31.257230443966264 21.320549478642363 H 0.0 **** 0.06
2041 C 31.658818472170736 96.92657207090554 82.79941470171917 C 0.0 **** -0.24
2042 H 31.647722809279912 95.83808335542358 82.8543124476675 H 0.0 **** 0.06
2043 H 32.663782671008875 97.26753311802304 82.54849010114958 H 0.0 **** 0.06
2044 H 31.3636244580579 97.34219368146006 83.76285787085743 H 0.0 **** 0.06
2045 H 30.960144884993042 97.25803328758172 82.03110274550411 H 0.0 **** 0.06
2046 C 10.009704754454248 11.056090912507415 42.6010518671807 C 0.0 **** -0.24
2047 H 10.333260213409801 12.094874907467528 42.66378321651729 H 0.0 **** 0.06
2048 H 9.306691346416102 10.844327222574208 43.408006006225406 H 0.0 **** 0.06
2049 H 10.875269506559903 10.39969610074786 42.69137399511288 H 0.0 **** 0.06
2050 H 9.522540428137262 10.884912586719565 41.640285213448124 H 0.0 **** 0.06
2051 C 98.78994955457395 32.89277318730072 56.57321089566391 C 0.0 **** -0.24
2052 H 97.74736517163498 32.8444442327245 56.88656157928899 H 0.0 **** 0.06
2053 H 98.98572583388321 33.85803131206107 56.10606639938673 H 0.0 **** 0.06
2054 H 98.99175062325617 32.09502457162844 55.85862848353687 H 0.0 **** 0.06
2055 H 99.4363719016855 32.77216847028653 57.44299033247125 H 0.0 **** 0.06
2056 C 32.27353630351033 93.49853547077367 1.028407243852902 C 0.0 **** -0.24
2057 H 31.57038096019344 94.32910999636351 1.086174548557592 H 0.0 **** 0.06
2058 H 31.99390400484075 92.73500844696781 1.7535056939618006 H 0.0 **** 0.06
2059 H 33.279552282598324 93.85815620664434 1.2472940088350928 H 0.0 **** 0.06
2060 H 32.25081597574139 93.07247997350669 0.024565042615513732 H 0.0 **** 0.06
2061 C 100.2314081565903 103.00441617650304 66.78453898612526 C 0.0 **** -0.24
2062 H 99.9941341056429 102.0669202777907 67.28717505579243 H 0.0 **** 0.06
2063 H 99.33540802367651 103.3934981026859 66.29952593063214 H 0.0 **** 0.06
2064 H 101.00366497544681 102.8293561374085 66.03426699214612 H 0.0 **** 0.06
2065 H 100.59321692417649 103.7273333715878 67.51517204676315 H 0.0 **** 0.06
2066 C 71.00992576037333 45.11147781230288 91.01145098790528 C 0.0 **** -0.24
2067 H 70.33583929786067 45.72367796204202 90.41194951575346 H 0.0 **** 0.06
2068 H 72.0106439216676 45.540694137496146 90.98471195056834 H 0.0 **** 0.06
2069 H 71.03644943749646 44.099428810241946 90.60833333382868 H 0.0 **** 0.06
2070 H 70.65393665164879 45.08314914487015 92.04175330566875 H 0.0 **** 0.06
2071 C 56.87645093607153 70.74411086960646 12.128659569626564 C 0.0 **** -0.24
2072 H 56.489717607833605 71.74374832773947 12.327095606964264 H 0.0 **** 0.06
2073 H 56.74764411126282 70.50813179422101 11.072094722300648 H 0.0 **** 0.06
2074 H 56.33254277303464 70.01770970542475 12.7333643655044 H 0.0 **** 0.06
2075 H 57.935871297297886 70.70665150087211 12.383062569126906 H 0.0 **** 0.06
2076 C 25.81415696782196 86.70330539640861 79.12005332013507 C 0.0 **** -0.24
2077 H 25.72744722637185 87.50300025210066 79.85582240373174 H 0.0 **** 0.06
2078 H 26.862638681273154 86.56545131659249 78.85545753086501 H 0.0 **** 0.06
2079 H 25.245698129603824 86.96747563671468 78.22830660440337 H 0.0 **** 0.06
2080 H 25.4208885804139 85.77837009085749 79.5415437810797 H 0.0 **** 0.06
2081 C 27.034123514854052 0.11380247032879964 88.62857288337372 C 0.0 **** -0.24
2082 H 26.990372866543687 0.959869671509157 89.31501719334088 H 0.0 **** 0.06
2083 H 27.030067962312472 0.4777822741562172 87.60148876658437 H 0.0 **** 0.06
2084 H 26.168777825018736 -0.5291969939848791 88.79021481047198 H 0.0 **** 0.06
2085 H 27.94703214048979 -0.4532200190002218 88.81072366336988 H 0.0 **** 0.06
2086 C 100.08296539885305 54.943498104584584 92.33772918967492 C 0.0 **** -0.24
2087 H 99.18228687737425 55.5383047852854 92.48749815980045 H 0.0 **** 0.06
2088 H 100.58836793807004 54.80088763061647 93.29271090426943 H 0.0 **** 0.06
2089 H 100.74997493866945 55.46157416485379 91.64762548484896 H 0.0 **** 0.06
2090 H 99.81196291529889 53.97320488466002 91.92074438105925 H 0.0 **** 0.06
2091 C 62.08701266538258 42.04620626430025 21.893364508897474 C 0.0 **** -0.24
2092 H 62.66237148256045 42.68268730085788 21.22102256024283 H 0.0 **** 0.06
2093 H 61.28863903706549 41.55704047471943 21.334718835738517 H 0.0 **** 0.06
2094 H 61.65494818450775 42.655450835821625 22.687920969241794 H 0.0 **** 0.06
2095 H 62.74255467498745 41.29196196484119 22.32914404519722 H 0.0 **** 0.06
2096 C 46.169771808109516 98.64497973111486 98.49677426143148 C 0.0 **** -0.24
2097 H 45.66801522134193 98.55388136816066 97.53349861204669 H 0.0 **** 0.06
2098 H 46.84668620532614 99.49923200615734 98.47431229687902 H 0.0 **** 0.06
2099 H 46.7366154404653 97.73668807918617 98.69834328778478 H 0.0 **** 0.06
2100 H 45.425701840258654 98.79086934926664 99.28054765801255 H 0.0 **** 0.06
2101 C 73.07496549104826 103.07000926330653 53.116896062265184 C 0.0 **** -0.24
2102 H 72.91276183854896 104.14758032570984 53.11072232978724 H 0.0 **** 0.06
2103 H 73.81043215290521 102.80920864845967 52.355701992404256 H 0.0 **** 0.06
2104 H 72.13450999210681 102.5600165436594 52.90423542299053 H 0.0 **** 0.06
2105 H 73.44087377280766 102.7638226655896 54.0969631364639 H 0.0 **** 0.06
2106 C 1.6996336728259962 9.707607388634813 57.55261713467778 C 0.0 **** -0.24
2107 H 1.8751405379618973 9.783773636924735 58.62502308746853 H 0.0 **** 0.06
2108 H 0.6269700064927406 9.68167942390616 57.35991532614191 H 0.0 **** 0.06
2109 H 2.158128706144737 8.793854543891058 57.17348172430989 H 0.0 **** 0.06
2110 H 2.1387865830227497 10.569049111512584 57.049935902835536 H 0.0 **** 0.06
2111 C 20.17134673336193 28.931745434546713 98.82696306258597 C 0.0 **** -0.24
2112 H 20.309506562960507 28.293042111123697 97.95450876495693 H 0.0 **** 0.06
2113 H 21.051762934490057 28.866014968686244 99.46702356603419 H 0.0 **** 0.06
2114 H 19.292567112064432 28.603819772521774 99.38165727549122 H 0.0 **** 0.06
2115 H 20.033600225948646 29.962923921529722 98.5031122589238 H 0.0 **** 0.06
2116 C 21.951352000286306 90.09616556412766 106.57380448621737 C 0.0 **** -0.24
2117 H 21.140218781211487 89.3679755297243 106.58523939643601 H 0.0 **** 0.06
2118 H 22.171384461806127 90.40958009737051 107.59487484683726 H 0.0 **** 0.06
2119 H 21.653349417731633 90.96251928534372 105.98422141813515 H 0.0 **** 0.06
2120 H 22.83924334015518 89.64414762901865 106.1333998566088 H 0.0 **** 0.06
2121 C 112.7326734039986 71.56650795253128 101.96386138637337 C 0.0 **** -0.24
2122 H 112.28857237403759 70.71643502731104 101.44469480305241 H 0.0 **** 0.06
2123 H 112.03937928779408 71.93114182227339 102.72184818176052 H 0.0 **** 0.06
2124 H 112.9400934657757 72.36100044081579 101.24728818650169 H 0.0 **** 0.06
2125 H 113.66177019384611 71.25486108457494 102.44038831551492 H 0.0 **** 0.06
2126 C 4.419539154327651 3.381407412854017 80.44927484033187 C 0.0 **** -0.24
2127 H 4.020434372111765 2.60392368740159 81.10073320605443 H 0.0 **** 0.06
2128 H 4.3136576390729715 4.3520616029813795 80.9346563070832 H 0.0 **** 0.06
2129 H 3.8708922856732215 3.3845804155700705 79.50749880178782 H 0.0 **** 0.06
2130 H 5.474638176043129 3.1859350592641107 80.25451535514031 H 0.0 **** 0.06
2131 C 69.40357276887264 23.167917564884718 67.78444583566 C 0.0 **** -0.24
2132 H 70.22892633872519 22.95051411091159 68.46268606921521 H 0.0 **** 0.06
2133 H 68.58855088837777 23.630452006000816 68.34116101954149 H 0.0 **** 0.06
2134 H 69.05380013815744 22.241349224758576 67.32924391815348 H 0.0 **** 0.06
2135 H 69.7442709497098 23.849944000435613 67.0044231745583 H 0.0 **** 0.06
2136 C 49.74956182071179 75.4983696723861 42.25837265787402 C 0.0 **** -0.24
2137 H 50.783087109897906 75.32142329745278 42.55768868343321 H 0.0 **** 0.06
2138 H 49.31721463386684 74.57203717848012 41.87888531408481 H 0.0 **** 0.06
2139 H 49.7223062408457 76.25999393725695 41.47924226604911 H 0.0 **** 0.06
2140 H 49.175901036112634 75.84042479456693 43.12046211736376 H 0.0 **** 0.06
2141 C 76.34756975602966 27.679254426455884 27.443131917894476 C 0.0 **** -0.24
2142 H 77.2117748276072 27.04877395883227 27.231253154116644 H 0.0 **** 0.06
2143 H 75.75023037795461 27.221826920051626 28.232038333158528 H 0.0 **** 0.06
2144 H 75.74240863728659 27.780714277764446 26.54200067636853 H 0.0 **** 0.06
2145 H 76.68653604325226 28.66305023353027 27.766517431067257 H 0.0 **** 0.06
2146 C 35.53336890543824 82.29807256567949 40.2796124903758 C 0.0 **** -0.24
2147 H 36.21158859646454 81.45050931423893 40.178685884065004 H 0.0 **** 0.06
2148 H 34.71422353683158 82.03088139295039 40.94681132045474 H 0.0 **** 0.06
2149 H 35.133818251948696 82.56127309038621 39.30054390622004 H 0.0 **** 0.06
2150 H 36.075120173280595 83.14961343513767 40.691236442080424 H 0.0 **** 0.06
2151 C 62.793058338156754 70.19076027936302 101.77402094142508 C 0.0 **** -0.24
2152 H 61.9057185331136 69.59528026332794 101.989502280681 H 0.0 **** 0.06
2153 H 62.55113414177123 71.24973622794329 101.86821879379193 H 0.0 **** 0.06
2154 H 63.13087979350939 69.98346195335813 100.75866748876945 H 0.0 **** 0.06
2155 H 63.58252150285665 69.9325430715947 102.4797562656538 H 0.0 **** 0.06
2156 C 59.556173522637685 102.25670532747 91.26700986073209 C 0.0 **** -0.24
2157 H 60.46358931676232 102.78902337414112 91.55075903658309 H 0.0 **** 0.06
2158 H 58.88613235644305 102.19771243415431 92.1249074432956 H 0.0 **** 0.06
2159 H 59.81416122899686 101.25098960907266 90.93722700970304 H 0.0 **** 0.06
2160 H 59.06081118834866 102.78909589251202 90.45514595334683 H 0.0 **** 0.06
2161 C 12.521472480270319 111.66100554329496 39.0169253545169 C 0.0 **** -0.24
2162 H 13.48240101837601 111.79561699223972 38.520447091780454 H 0.0 **** 0.06
2163 H 11.742432273100292 112.16185570956688 38.44127346671962 H 0.0 **** 0.06
2164 H 12.566891142019927 112.09012318197296 40.017151169966496 H 0.0 **** 0.06
2165 H 12.294196151950388 110.59745997067067 39.08660912343902 H 0.0 **** 0.06
2166 C 107.26821319258889 52.242612891816975 9.46914146835573 C 0.0 **** -0.24
2167 H 106.32984259432459 51.973412437316 9.953041509775474 H 0.0 **** 0.06
2168 H 107.36902749652387 51.687428878017045 8.536604203013184 H 0.0 **** 0.06
2169 H 108.10092716383582 51.99780416120987 10.129481359833719 H 0.0 **** 0.06
2170 H 107.27520454976334 53.31252977412731 9.258365238145188 H 0.0 **** 0.06
2171 C 28.275048610178345 98.65955734765285 98.81878882685095 C 0.0 **** -0.24
2172 H 27.42853237173344 99.2566311169152 99.15742686580421 H 0.0 **** 0.06
2173 H 28.02367025976514 97.60050166866077 98.88922787517589 H 0.0 **** 0.06
2174 H 29.141605522962436 98.86973132886911 99.44650025981457 H 0.0 **** 0.06
2175 H 28.506247829151278 98.9107651538159 97.78327341301173 H 0.0 **** 0.06
2176 C 113.42613347486275 48.16412937992042 32.8633173622695 C 0.0 **** -0.24
2177 H 113.30654127130111 47.183457742327526 32.40230495507342 H 0.0 **** 0.06
2178 H 113.98563385832648 48.81550976576263 32.19220972498658 H 0.0 **** 0.06
2179 H 113.96740287116842 48.05866374907377 33.80342799347599 H 0.0 **** 0.06
2180 H 112.44396454121872 48.59669631317928 33.05579760850574 H 0.0 **** 0.06
2181 C 68.2911226032034 57.227626750133844 32.578952130768926 C 0.0 **** -0.24
2182 H 69.28563545398066 56.83933102584468 32.35742507537719 H 0.0 **** 0.06
2183 H 68.35521176808226 58.29697803706812 32.78101398656119 H 0.0 **** 0.06
2184 H 67.88725242478375 56.71526382927852 33.451949075168585 H 0.0 **** 0.06
2185 H 67.63650267064054 57.0588825912865 31.72369267100038 H 0.0 **** 0.06
2186 C 111.91581421576453 58.6549684090917 27.741210107208417 C 0.0 **** -0.24
2187 H 111.91423727252126 59.60715952904442 27.209749654142726 H 0.0 **** 0.06
2188 H 111.6602392922106 57.85213826151237 27.049562227598216 H 0.0 **** 0.06
2189 H 111.18155029693696 58.68838449327452 28.54733884954942 H 0.0 **** 0.06
2190 H 112.9061281714265 58.4738634821827 28.1591848085761 H 0.0 **** 0.06
2191 C 13.947729081410198 56.64963044699721 85.7920452283779 C 0.0 **** -0.24
2192 H 14.931652248876127 56.53889554845006 86.24841413994142 H 0.0 **** 0.06
2193 H 13.539419865129169 57.62939253030186 86.04318763441682 H 0.0 **** 0.06
2194 H 13.283373026405886 55.87227530457062 86.16894383613214 H 0.0 **** 0.06
2195 H 14.036417678719182 56.55894362004483 84.70964198697823 H 0.0 **** 0.06
2196 C 77.26247023807284 100.60303420954608 4.873589774987934 C 0.0 **** -0.24
2197 H 76.60813743067362 100.33886960205064 4.0428213313138315 H 0.0 **** 0.06
2198 H 78.09975576140769 99.90458859942271 4.912130447651265 H 0.0 **** 0.06
2199 H 76.70318173092159 100.55034443107616 5.80774753989553 H 0.0 **** 0.06
2200 H 77.63940267479171 101.61541384435151 4.731319147645266 H 0.0 **** 0.06
2201 C 21.59952547678253 55.13546340280428 84.99586482524822 C 0.0 **** -0.24
2202 H 21.35271712804186 56.16080662254751 85.26953147169758 H 0.0 **** 0.06
2203 H 22.437441730450047 55.13830624187119 84.29815364806555 H 0.0 **** 0.06
2204 H 20.735878676652902 54.66708975396725 84.52388294585234 H 0.0 **** 0.06
2205 H 21.87299556229084 54.57537113310204 85.88964292167671 H 0.0 **** 0.06
2206 C 107.053559802101 26.76895066115958 15.066524457903427 C 0.0 **** -0.24
2207 H 107.73305937356858 27.616067118576893 15.158652587450433 H 0.0 **** 0.06
2208 H 107.44322786715722 25.92652098048916 15.63922218265759 H 0.0 **** 0.06
2209 H 106.96644277557925 26.485902224900485 14.017461645859214 H 0.0 **** 0.06
2210 H 106.07216841448272 27.046442154488375 15.44986233067894 H 0.0 **** 0.06
2211 C 34.84296090355063 97.41104280769497 44.20207578459548 C 0.0 **** -0.24
2212 H 34.21889919667628 98.14148454397622 44.716021665685446 H 0.0 **** 0.06
2213 H 34.28735368804344 96.47966122498357 44.08232320734734 H 0.0 **** 0.06
2214 H 35.74283774578535 97.2242018986781 44.78963158498408 H 0.0 **** 0.06
2215 H 35.12254007412845 97.79699524928094 43.22159641684706 H 0.0 **** 0.06
2216 C 25.057407584876103 54.938744300549956 55.7804124181878 C 0.0 **** -0.24
2217 H 24.476497443649464 54.71664138059319 56.675160554003334 H 0.0 **** 0.06
2218 H 25.4988442884312 55.93183575140668 55.87196380700727 H 0.0 **** 0.06
2219 H 24.405722654834562 54.90843073436034 54.90759664788175 H 0.0 **** 0.06
2220 H 25.849053531645836 54.198291878671824 55.668575757367854 H 0.0 **** 0.06
2221 C 43.57702946491079 41.01015608162797 14.251141064687488 C 0.0 **** -0.24
2222 H 43.03758065063421 40.75470045563692 13.339561162168508 H 0.0 **** 0.06
2223 H 44.23045046361945 40.18318287919104 14.530144513276582 H 0.0 **** 0.06
2224 H 42.86532131575515 41.19842375664808 15.05489871234326 H 0.0 **** 0.06
2225 H 44.176160199542906 41.904409560293146 14.079744905695975 H 0.0 **** 0.06
2226 C 47.81146629344608 95.1164378733859 102.93546508609438 C 0.0 **** -0.24
2227 H 47.16918003955161 95.58207099583541 102.18837091731785 H 0.0 **** 0.06
2228 H 48.62105836161446 95.79944816233262 103.19463926841755 H 0.0 **** 0.06
2229 H 48.22864548493355 94.19390609470145 102.53245618470862 H 0.0 **** 0.06
2230 H 47.22624184722338 94.89144997271603 103.82683051856958 H 0.0 **** 0.06
2231 C 85.6116366559852 115.5270458144955 69.96562843026939 C 0.0 **** -0.24
2232 H 86.54910572011568 115.34730723737422 69.4387067968222 H 0.0 **** 0.06
2233 H 84.96865964158667 116.16154678378041 69.35555248903407 H 0.0 **** 0.06
2234 H 85.8176963529626 116.02289086563724 70.9141476184987 H 0.0 **** 0.06
2235 H 85.11304078073647 114.57690977336298 70.15313078413413 H 0.0 **** 0.06
2236 C 36.32248106842981 10.669151248779713 102.48361530186835 C 0.0 **** -0.24
2237 H 37.41143038071567 10.716253892620927 102.4760453277894 H 0.0 **** 0.06
2238 H 35.94726211859927 11.084833776994884 103.41882616065499 H 0.0 **** 0.06
2239 H 36.00364755424725 9.630434862187059 102.39369833457883 H 0.0 **** 0.06
2240 H 35.928535724423625 11.24423832483933 101.64527317172005 H 0.0 **** 0.06
2241 C 27.716701968207538 14.430265374824131 29.143560018991394 C 0.0 **** -0.24
2242 H 28.483373459727602 15.163760775550827 28.895286275581206 H 0.0 **** 0.06
2243 H 27.18095188247846 14.752561697402854 30.036234918347148 H 0.0 **** 0.06
2244 H 28.186323436256536 13.463575242293615 29.330304602157945 H 0.0 **** 0.06
2245 H 27.017270129834337 14.339021814467856 28.312836082975288 H 0.0 **** 0.06
2246 C 79.3442380326374 31.40884580291106 65.16261472818618 C 0.0 **** -0.24
2247 H 78.46721101059384 31.994200683167776 64.88559331630961 H 0.0 **** 0.06
2248 H 79.31992795469884 31.204444117442733 66.2336084798996 H 0.0 **** 0.06
2249 H 80.24659630147164 31.968180548951977 64.9193193107867 H 0.0 **** 0.06
2250 H 79.34050564064475 30.467278196729637 64.61204849763331 H 0.0 **** 0.06
2251 C 41.27962773869575 100.7337133968897 78.90154363803083 C 0.0 **** -0.24
2252 H 41.78713314052317 101.50425561984122 79.48085223309232 H 0.0 **** 0.06
2253 H 41.48389417093739 100.88339908269751 77.8411526647989 H 0.0 **** 0.06
2254 H 40.20607576778531 100.79415494633423 79.07767853144182 H 0.0 **** 0.06
2255 H 41.64358682092569 99.75215762696092 79.20580774890163 H 0.0 **** 0.06
2256 C 69.43092516612603 27.444941151188146 48.561192795903764 C 0.0 **** -0.24
2257 H 69.67120839030227 27.631029991999384 47.51366686455577 H 0.0 **** 0.06
2258 H 69.86250582151425 26.492477379692303 48.86834496161336 H 0.0 **** 0.06
2259 H 68.34876002797233 27.41103879474653 48.68478801555651 H 0.0 **** 0.06
2260 H 69.8421603787767 28.245767355822466 49.175173673859405 H 0.0 **** 0.06
2261 C 11.795638622252795 75.49078685164153 20.99845441443071 C 0.0 **** -0.24
2262 H 12.023640086440565 74.57013128176786 20.461940496312394 H 0.0 **** 0.06
2263 H 11.198792069548261 76.14394070534573 20.36206004818237 H 0.0 **** 0.06
2264 H 12.724566788293714 75.99415365136124 21.266784262339797 H 0.0 **** 0.06
2265 H 11.236248066451083 75.2546601847665 21.903705194837357 H 0.0 **** 0.06
2266 C 96.08469512905873 37.97122074748253 73.53854345610745 C 0.0 **** -0.24
2267 H 95.29923149025836 38.59178245752544 73.10800708724173 H 0.0 **** 0.06
2268 H 96.47005084726328 37.29343195610084 72.7769596573857 H 0.0 **** 0.06
2269 H 95.67642498633103 37.39264330072145 74.36700418493248 H 0.0 **** 0.06
2270 H 96.89262959807846 38.606188380222044 73.90252365772383 H 0.0 **** 0.06
2271 C 90.6144948149321 40.82480660585148 68.90946542866104 C 0.0 **** -0.24
2272 H 90.16991256966514 41.81962348988466 68.9437814080793 H 0.0 **** 0.06
2273 H 91.47855382260201 40.83724065885909 68.2434660863643 H 0.0 **** 0.06
2274 H 89.87947243753968 40.111096744177274 68.53828371159997 H 0.0 **** 0.06
2275 H 90.9310369130099 40.5336464776654 69.91080124766731 H 0.0 **** 0.06
2276 C 85.93892465440558 1.6111242753600834 110.22546790067213 C 0.0 **** -0.24
2277 H 85.60598503499318 2.3895852632529397 110.9120815331272 H 0.0 **** 0.06
2278 H 85.96085384156987 0.6529632216709729 110.74550840627069 H 0.0 **** 0.06
2279 H 86.93854829576708 1.8508219760634006 109.86189782078861 H 0.0 **** 0.06
2280 H 85.25118310917455 1.551605576698563 109.38227953187658 H 0.0 **** 0.06
2281 C 109.31588206953023 64.5604109122701 92.76087479107662 C 0.0 **** -0.24
2282 H 108.54317333402557 64.92518051403869 92.08492001794059 H 0.0 **** 0.06
2283 H 110.12568379830168 64.11770751346884 92.18132202963511 H 0.0 **** 0.06
2284 H 108.89144968221476 63.807428392003146 93.42540099687105 H 0.0 **** 0.06
2285 H 109.70289809537987 65.3897453458973 93.35248321851955 H 0.0 **** 0.06
2286 C 1.8849098448285702 96.75265847209118 73.30281822355684 C 0.0 **** -0.24
2287 H 2.138027207907669 95.85489817618841 73.86663345100823 H 0.0 **** 0.06
2288 H 1.8534234130283238 96.51568139916176 72.23850147223374 H 0.0 **** 0.06
2289 H 2.638561640678688 97.51903404251391 73.48216422681847 H 0.0 **** 0.06
2290 H 0.9096560567808041 97.11914653690772 73.6223962029463 H 0.0 **** 0.06
2291 C 113.75250665748052 47.15826865655774 110.40528422835688 C 0.0 **** -0.24
2292 H 113.11209574439198 46.62680685702018 111.1102557687418 H 0.0 **** 0.06
2293 H 114.1758028466349 48.03728306087143 110.89277337061746 H 0.0 **** 0.06
2294 H 113.16257648095592 47.46932477423702 109.54340487552452 H 0.0 **** 0.06
2295 H 114.55698471510482 46.50037021202081 110.07733113806083 H 0.0 **** 0.06
2296 C 7.9280962603187355 32.14107181420552 110.10792708794344 C 0.0 **** -0.24
2297 H 7.147363779656871 32.03072823973035 110.8611473176766 H 0.0 **** 0.06
2298 H 7.866450450612135 31.317749288025773 109.3970640097723 H 0.0 **** 0.06
2299 H 8.904243840630645 32.1296268945779 110.59361786471118 H 0.0 **** 0.06
2300 H 7.794093902268084 33.086672859321524 109.58226786350292 H 0.0 **** 0.06
2301 C 55.58869113309857 39.93453266221479 114.51465173811815 C 0.0 **** -0.24
2302 H 55.16998583682214 40.931119310903796 114.65634338731306 H 0.0 **** 0.06
2303 H 55.03609509845875 39.21919717180356 115.12493315708556 H 0.0 **** 0.06
2304 H 56.63720439762796 39.934574358737905 114.81311869219613 H 0.0 **** 0.06
2305 H 55.50926126425774 39.653018875578084 113.46403214627523 H 0.0 **** 0.06
2306 C 92.60077537828352 42.80369094649062 30.73671183847776 C 0.0 **** -0.24
2307 H 93.01496275207506 43.06856040249552 29.764144344600254 H 0.0 **** 0.06
2308 H 93.41019930682995 42.679404954164156 31.45541860042158 H 0.0 **** 0.06
2309 H 92.04316796988229 41.87139730881435 30.6510725882508 H 0.0 **** 0.06
2310 H 91.93253623419452 43.59691501955594 31.074285058974255 H 0.0 **** 0.06
2311 C 110.20934598955856 39.647469661149216 21.279184396979105 C 0.0 **** -0.24
2312 H 110.19494222684709 40.707696500482314 21.532993745573066 H 0.0 **** 0.06
2313 H 109.5759718104925 39.098525436000386 21.976689242596933 H 0.0 **** 0.06
2314 H 111.23064404693363 39.273000433045866 21.341966501660693 H 0.0 **** 0.06
2315 H 109.8338029959492 39.5127238014324 20.264291965992953 H 0.0 **** 0.06
2316 C 22.99579200055885 72.43282628459025 87.55715428029458 C 0.0 **** -0.24
2317 H 22.850915016302196 72.36930267589537 86.47925358493296 H 0.0 **** 0.06
2318 H 24.011364630013844 72.12510270784065 87.80566582618687 H 0.0 **** 0.06
2319 H 22.28396292865048 71.77741002720194 88.05927128672573 H 0.0 **** 0.06
2320 H 22.837232656307307 73.46086980035801 87.88439286550283 H 0.0 **** 0.06
2321 C 21.012082004427484 43.30138893564336 11.584555322163425 C 0.0 **** -0.24
2322 H 21.837443569240065 43.70975518473435 11.002711897456805 H 0.0 **** 0.06
2323 H 20.34036237890004 42.7501773198417 10.925318522351148 H 0.0 **** 0.06
2324 H 20.46609677379554 44.1156449504135 12.061511157304011 H 0.0 **** 0.06
2325 H 21.403502574873187 42.62979193155533 12.349017226174723 H 0.0 **** 0.06
2326 C 21.402111644904352 53.68840355877046 107.90985611478672 C 0.0 **** -0.24
2327 H 20.404258329920623 53.344579285449925 108.18243859294668 H 0.0 **** 0.06
2328 H 21.491667112903457 54.7525729017815 108.12662087058504 H 0.0 **** 0.06
2329 H 21.56599624907463 53.51857607747389 106.84552813186184 H 0.0 **** 0.06
2330 H 22.146143297576373 53.135794397130994 108.4841440411835 H 0.0 **** 0.06
2331 C 79.0835260781368 31.479099473843064 96.53964032360074 C 0.0 **** -0.24
2332 H 79.3141846733115 31.907169899457813 97.5152226618074 H 0.0 **** 0.06
2333 H 79.17110839692259 30.393454991243118 96.59016762008577 H 0.0 **** 0.06
2334 H 79.78126531826658 31.866209812206137 95.7976524143557 H 0.0 **** 0.06
2335 H 78.06597965606551 31.749157713471618 96.25706219272195 H 0.0 **** 0.06
2336 C 116.29062547245894 107.34090085904253 18.970656041339822 C 0.0 **** -0.24
2337 H 116.01739811536508 106.35814518507559 18.586627844062235 H 0.0 **** 0.06
2338 H 116.82184666452639 107.22678213857915 19.915179988934085 H 0.0 **** 0.06
2339 H 115.38810131861688 107.93249836824035 19.130021079379816 H 0.0 **** 0.06
2340 H 116.93329738271808 107.84681219305529 18.250415744854365 H 0.0 **** 0.06
2341 C 7.97754233719499 50.00480453350972 4.924804572060026 C 0.0 **** -0.24
2342 H 7.690921813601761 48.95548989273912 4.847615894860013 H 0.0 **** 0.06
2343 H 8.701023937793252 50.12458104286536 5.732218730693887 H 0.0 **** 0.06
2344 H 7.09422266681986 50.607968293020825 5.135057795512495 H 0.0 **** 0.06
2345 H 8.424442452622458 50.32907765065397 3.984950430622206 H 0.0 **** 0.06
2346 C 32.96241873028208 73.52050512824525 45.37386132018503 C 0.0 **** -0.24
2347 H 32.49290439296996 72.68698735306063 45.896673905805784 H 0.0 **** 0.06
2348 H 32.377615008104186 73.76890190949575 44.48776411364349 H 0.0 **** 0.06
2349 H 33.972753638513495 73.2400799332714 45.07758341120666 H 0.0 **** 0.06
2350 H 33.004502835933636 74.38584383060842 46.03594400101224 H 0.0 **** 0.06
2351 C 79.76684127868117 45.11685756522479 82.65104966886526 C 0.0 **** -0.24
2352 H 79.39340008111685 45.04453318792426 81.62929360250996 H 0.0 **** 0.06
2353 H 79.6735724815455 46.1463169402777 82.99821814245468 H 0.0 **** 0.06
2354 H 80.81382516214754 44.817325750825944 82.67706734555637 H 0.0 **** 0.06
2355 H 79.18386717929826 44.460405298913514 83.29729900906221 H 0.0 **** 0.06
2356 C 103.20498928629661 46.928010922044905 8.61677444833441 C 0.0 **** -0.24
2357 H 103.87736486436805 46.57609775981061 9.399716863824665 H 0.0 **** 0.06
2358 H 102.2248383642079 47.1346302642539 9.047532194167161 H 0.0 **** 0.06
2359 H 103.10991111747893 46.16159569885173 7.8479061977749325 H 0.0 **** 0.06
2360 H 103.60811613525686 47.83902619764618 8.174670988105959 H 0.0 **** 0.06
2361 C 28.170768664976592 76.3024676035296 21.3043300635118 C 0.0 **** -0.24
2362 H 28.34732983994347 75.57513656610672 20.511666638109403 H 0.0 **** 0.06
2363 H 28.248885039574347 75.80937987334522 22.273530207925063 H 0.0 **** 0.06
2364 H 27.173386673524277 76.72760091512782 21.19167392536417 H 0.0 **** 0.06
2365 H 28.91323510498067 77.09786623168606 21.2390599991885 H 0.0 **** 0.06
2366 C 84.5840921514631 61.81764642195494 54.27642972614103 C 0.0 **** -0.24
2367 H 84.32773553585918 61.14071996723458 53.4618136219146 H 0.0 **** 0.06
2368 H 84.43906709374556 61.308612334706204 55.23047780240011 H 0.0 **** 0.06
2369 H 83.94315572731435 62.697439623814894 54.23387498341506 H 0.0 **** 0.06
2370 H 85.6268955657876 62.12157621082847 54.18149114560151 H 0.0 **** 0.06
2371 C 8.149580107001754 102.22611366890416 80.03264501251164 C 0.0 **** -0.24
2372 H 7.95275600644689 101.78517800902051 81.01060803470068 H 0.0 **** 0.06
2373 H 7.41518324695781 101.85947381474986 79.31466513380627 H 0.0 **** 0.06
2374 H 9.150293945791816 101.94740007921757 79.70386231132821 H 0.0 **** 0.06
2375 H 8.079070703318123 103.31194250895439 80.10338238497661 H 0.0 **** 0.06
2376 C 59.095655131964236 44.49091080862348 69.05573244978225 C 0.0 **** -0.24
2377 H 59.69518117612478 44.008812330708 69.82820845364236 H 0.0 **** 0.06
2378 H 58.04218815698334 44.44602806250276 69.33369557258439 H 0.0 **** 0.06
2379 H 59.24425746792667 43.974806484257954 68.10737005816819 H 0.0 **** 0.06
2380 H 59.4018252427918 45.531801652934575 68.95552450636816 H 0.0 **** 0.06
2381 C 12.521027554325613 17.59549864906166 50.52490298651921 C 0.0 **** -0.24
2382 H 12.57422665189431 16.512868474565916 50.41575970440115 H 0.0 **** 0.06
2383 H 13.174738654160777 18.06755030608327 49.791909424403045 H 0.0 **** 0.06
2384 H 12.840291768634973 17.87578400636499 51.529622428645645 H 0.0 **** 0.06
2385 H 11.495377909457517 17.926800643601137 50.364490002492374 H 0.0 **** 0.06
2386 C 116.457964928706 37.20520065298141 44.09425696791203 C 0.0 **** -0.24
2387 H 116.95116377763226 38.15987969041733 43.911018304422875 H 0.0 **** 0.06
2388 H 116.08366462745722 37.17966396862261 45.117869568860684 H 0.0 **** 0.06
2389 H 117.17105418648555 36.3941828511657 43.94660399102138 H 0.0 **** 0.06
2390 H 115.6260899713441 37.087787766142796 43.40031907835059 H 0.0 **** 0.06
2391 C 102.99826442050332 113.05849852242369 62.46937535973228 C 0.0 **** -0.24
2392 H 103.18453460925542 112.10228175128663 62.95985732824843 H 0.0 **** 0.06
2393 H 103.93384275307093 113.61064619975474 62.383668527236296 H 0.0 **** 0.06
2394 H 102.28715596623098 113.63691245262231 63.060290529536985 H 0.0 **** 0.06
2395 H 102.58661058837006 112.88178838045917 61.47582304526904 H 0.0 **** 0.06
2396 C 95.65548280404883 96.42825573279939 97.1359877064952 C 0.0 **** -0.24
2397 H 94.58777859368371 96.2230850532363 97.22369391406644 H 0.0 **** 0.06
2398 H 95.79958176016888 97.43427685236415 96.74155699576494 H 0.0 **** 0.06
2399 H 96.11018702887665 95.70409936460891 96.4601377367924 H 0.0 **** 0.06
2400 H 96.12152505418806 96.35186319582544 98.11770370116426 H 0.0 **** 0.06
2401 C 5.072449521657234 48.472951318776666 100.85237405252039 C 0.0 **** -0.24
2402 H 5.61318702670475 49.418113722771864 100.79483619710723 H 0.0 **** 0.06
2403 H 5.285772373119983 47.990539130821446 101.80642354330107 H 0.0 **** 0.06
2404 H 5.389702367651196 47.82307495185114 100.03675409457924 H 0.0 **** 0.06
2405 H 4.0020277873403245 48.66156105635258 100.77141581174891 H 0.0 **** 0.06
2406 C 42.72471088713445 46.45311578730741 90.01388499296775 C 0.0 **** -0.24
2407 H 41.70852654569374 46.76147860831756 89.7703336399099 H 0.0 **** 0.06
2408 H 43.41517785131299 47.266787669117804 89.79108456769472 H 0.0 **** 0.06
2409 H 42.990217087647224 45.57818167060084 89.41952871423547 H 0.0 **** 0.06
2410 H 42.784472702712044 46.204147722261126 91.0730728696715 H 0.0 **** 0.06
2411 C 99.81954746622134 74.4767872486901 103.30668927169125 C 0.0 **** -0.24
2412 H 100.78337087784487 74.19983287031832 103.73375866829477 H 0.0 **** 0.06
2413 H 99.1143011462544 73.65585164006862 103.4394031436112 H 0.0 **** 0.06
2414 H 99.9405678417391 74.68522685643626 102.24354789676198 H 0.0 **** 0.06
2415 H 99.44091625452947 75.36643628802051 103.8110607889862 H 0.0 **** 0.06
2416 C 68.09482169468731 68.62383071445555 112.92298887703394 C 0.0 **** -0.24
2417 H 68.12775370276762 68.95157924991224 113.96223666999202 H 0.0 **** 0.06
2418 H 67.81087371106838 69.46243395420726 112.28652931943012 H 0.0 **** 0.06
2419 H 67.36265573979773 67.82300534553156 112.8175595846198 H 0.0 **** 0.06
2420 H 69.07786657308407 68.25865742446302 112.62655545242595 H 0.0 **** 0.06
2421 C 17.231351946373906 35.86829372104688 54.446777196742005 C 0.0 **** -0.24
2422 H 16.280843582797317 36.40272388671784 54.4422081071875 H 0.0 **** 0.06
2423 H 17.835741635887466 36.194484540893285 53.6002110524546 H 0.0 **** 0.06
2424 H 17.04528605658422 34.7968724416107 54.36853059901779 H 0.0 **** 0.06
2425 H 17.761619071526425 36.07808178685772 55.375612113433846 H 0.0 **** 0.06
2426 C 90.85924444232882 53.51404091790164 86.13893179145433 C 0.0 **** -0.24
2427 H 91.43504075924633 54.40728256668052 86.3791826422827 H 0.0 **** 0.06
2428 H 91.09751175240316 53.19098408440675 85.12477616678825 H 0.0 **** 0.06
2429 H 89.79480166549726 53.737951710557496 86.20732101804649 H 0.0 **** 0.06
2430 H 91.10980340499407 52.71960985865563 86.8414714914604 H 0.0 **** 0.06
2431 C 55.69645342648192 33.07505989253467 41.62020716142848 C 0.0 **** -0.24
2432 H 55.48471853560619 34.13680905981214 41.49973506372629 H 0.0 **** 0.06
2433 H 54.76786617988972 32.5378753122055 41.811805671563604 H 0.0 **** 0.06
2434 H 56.37818313580942 32.933942594836374 42.46037692077735 H 0.0 **** 0.06
2435 H 56.158453488136104 32.69182165868029 40.71044237774072 H 0.0 **** 0.06
2436 C 81.32873337667283 55.08446696481755 62.0266135716123 C 0.0 **** -0.24
2437 H 80.53281636200217 55.827780013136305 62.05119607246115 H 0.0 **** 0.06
2438 H 81.60701599265971 54.88409965630032 60.99178493005252 H 0.0 **** 0.06
2439 H 80.9805222357044 54.16262922932262 62.49412597556295 H 0.0 **** 0.06
2440 H 82.19546446337091 55.462363521132744 62.5698216753093 H 0.0 **** 0.06
2441 C 88.36732139592468 60.779258621447774 55.1015851883306 C 0.0 **** -0.24
2442 H 88.8094678474869 61.19633078186107 56.00635360867102 H 0.0 **** 0.06
2443 H 87.35619687528737 61.169726497069554 54.97900984756262 H 0.0 **** 0.06
2444 H 88.3297701366526 59.693429660097514 55.18307677506789 H 0.0 **** 0.06
2445 H 88.97159354685618 61.05885017202262 54.238999970070495 H 0.0 **** 0.06
2446 C 63.17101058590952 55.95303630398257 43.22743263068217 C 0.0 **** -0.24
2447 H 62.928380894001 55.11038408482631 42.57978793227858 H 0.0 **** 0.06
2448 H 62.29611032468443 56.21745343153776 43.821758899131666 H 0.0 **** 0.06
2449 H 63.46792276170748 56.80662833360299 42.61729294885592 H 0.0 **** 0.06
2450 H 63.99120563693898 55.67707166884776 43.88968570146622 H 0.0 **** 0.06
2451 C 60.76231874250027 16.259593783384503 12.561358366029808 C 0.0 **** -0.24
2452 H 61.58335964179116 16.813418593309848 12.105906392234601 H 0.0 **** 0.06
2453 H 60.101108570755 15.882269853102997 11.780567488589767 H 0.0 **** 0.06
2454 H 60.202343815636254 16.9198259560539 13.22454099411398 H 0.0 **** 0.06
2455 H 61.162127444645535 15.423728430497448 13.134785465061498 H 0.0 **** 0.06
2456 C 38.44260228026559 12.597694060496988 70.52491597317416 C 0.0 **** -0.24
2457 H 39.43057626788658 12.814805910361745 70.92974847693071 H 0.0 **** 0.06
2458 H 37.991530900297434 11.780373586769333 71.08711290476754 H 0.0 **** 0.06
2459 H 38.53465299080278 12.311500635956666 69.47721632305658 H 0.0 **** 0.06
2460 H 37.81488762803329 13.485940962448371 70.60533615829621 H 0.0 **** 0.06
2461 C 67.6600941382055 68.29182974179133 117.99379945065704 C 0.0 **** -0.24
2462 H 68.62880368973245 68.59759843236415 117.59746886553599 H 0.0 **** 0.06
2463 H 66.87200533839274 68.87575451426707 117.51684394223228 H 0.0 **** 0.06
2464 H 67.63878695624763 68.46341535838368 119.07082500906388 H 0.0 **** 0.06
2465 H 67.50235572486554 67.23274979438528 117.79135737806551 H 0.0 **** 0.06
2466 C 43.91955350166381 66.49181632894874 36.740371772941444 C 0.0 **** -0.24
2467 H 44.61297679468345 66.61255951653916 35.9077327012474 H 0.0 **** 0.06
2468 H 44.479406440237 66.28353123499642 37.65211766725747 H 0.0 **** 0.06
2469 H 43.242209998773845 65.66425440394644 36.53206779651711 H 0.0 **** 0.06
2470 H 43.34471480477089 67.40921355810701 36.868326393273406 H 0.0 **** 0.06
2471 C 19.57040585381867 70.45713762702877 9.99310962946754 C 0.0 **** -0.24
2472 H 19.15581417208307 71.28909652324097 10.563036594917321 H 0.0 **** 0.06
2473 H 20.63980773422469 70.3797830051505 10.190296019394282 H 0.0 **** 0.06
2474 H 19.406810653911748 70.62887792882356 8.929560661589178 H 0.0 **** 0.06
2475 H 19.07794590475038 69.53159401690075 10.29195543297223 H 0.0 **** 0.06
2476 C 80.89832341776861 87.8250441606294 31.153126090953208 C 0.0 **** -0.24
2477 H 80.48648049891204 87.08688600822313 30.465167878210764 H 0.0 **** 0.06
2478 H 81.29711905444165 88.6664867982183 30.58674469794265 H 0.0 **** 0.06
2479 H 81.69616924165942 87.36921322527826 31.739037126285893 H 0.0 **** 0.06
2480 H 80.11205829393197 88.17591680836739 31.82177332795328 H 0.0 **** 0.06
2481 C 31.363208685289173 60.203196276947104 47.2785351533301 C 0.0 **** -0.24
2482 H 31.332249723855305 59.15287592143391 47.56779670490852 H 0.0 **** 0.06
2483 H 30.407554075276764 60.48623175820783 46.83523970226679 H 0.0 **** 0.06
2484 H 32.16077018401345 60.357359969867126 46.551662545973386 H 0.0 **** 0.06
2485 H 31.551338764009834 60.816316087370474 48.159828937514305 H 0.0 **** 0.06
2486 C 47.479134302394584 116.54902891387371 0.19407517861554346 C 0.0 **** -0.24
2487 H 47.95617867884975 116.36974211326373 1.1581682959849342 H 0.0 **** 0.06
2488 H 47.06239592235048 117.55666106032392 0.1777590204176409 H 0.0 **** 0.06
2489 H 46.68127504332329 115.82167189853723 0.04278747796727167 H 0.0 **** 0.06
2490 H 48.2183620808651 116.4479879324598 -0.6006270219810865 H 0.0 **** 0.06
2491 C 45.396884684326096 95.13801207313449 117.39370194480834 C 0.0 **** -0.24
2492 H 45.35875864761147 94.91804175772214 116.32646107308254 H 0.0 **** 0.06
2493 H 45.649688166066426 96.18857212572615 117.53823417854558 H 0.0 **** 0.06
2494 H 46.15520584213766 94.51315997562563 117.8662900209518 H 0.0 **** 0.06
2495 H 44.42481524276752 94.93243140160703 117.84156145122047 H 0.0 **** 0.06
2496 C 22.5154431067635 73.79179428627737 59.774354589942874 C 0.0 **** -0.24
2497 H 22.10750154398913 74.380637850603 60.59535730273089 H 0.0 **** 0.06
2498 H 22.362923212957853 72.73116470195052 59.97700010309396 H 0.0 **** 0.06
2499 H 23.581838281970263 73.99476024094619 59.67675996921602 H 0.0 **** 0.06
2500 H 22.00765933540532 74.06088827191192 58.84759210759532 H 0.0 **** 0.06
2501 C 107.91964805044634 41.06569054846608 45.33497480457041 C 0.0 **** -0.24
2502 H 108.99526784356448 40.89292351634617 45.29101778310016 H 0.0 **** 0.06
2503 H 107.44372401687664 40.250913019064456 45.8813158199784 H 0.0 **** 0.06
2504 H 107.51697059140116 41.10859849774738 44.32303788189577 H 0.0 **** 0.06
2505 H 107.72325157131635 42.00820495860245 45.84419623790265 H 0.0 **** 0.06
2506 C 114.03324600194414 63.358092492189485 55.94501624498779 C 0.0 **** -0.24
2507 H 114.72702562315835 63.41201575177587 55.10571610720337 H 0.0 **** 0.06
2508 H 113.59387089385223 64.34095243491487 56.11624542783509 H 0.0 **** 0.06
2509 H 114.56932711766349 63.038009065626 56.83881613449032 H 0.0 **** 0.06
2510 H 113.24497952392638 62.64122530106732 55.71727537882847 H 0.0 **** 0.06
2511 C 58.85248006654797 58.20423865307391 97.77662947489273 C 0.0 **** -0.24
2512 H 57.810049142562946 57.889442294676535 97.72871718130128 H 0.0 **** 0.06
2513 H 58.919092588343915 59.161824150328066 98.29321476918531 H 0.0 **** 0.06
2514 H 59.24676515758961 58.3078502297764 96.76612938544599 H 0.0 **** 0.06
2515 H 59.4326835396854 57.45737214195247 98.31857773491345 H 0.0 **** 0.06
2516 C 52.901806230721604 81.22017969327919 99.20120498182706 C 0.0 **** -0.24
2517 H 53.60409543141273 81.63592645331957 99.9234348995802 H 0.0 **** 0.06
2518 H 53.19421499450124 81.52107441458881 98.19493161863721 H 0.0 **** 0.06
2519 H 51.89873436989413 81.59001975215932 99.41466403021616 H 0.0 **** 0.06
2520 H 52.91035872437212 80.13152389460927 99.27129846540387 H 0.0 **** 0.06
2521 C 28.899526540647344 112.52390180291431 55.46349303485629 C 0.0 **** -0.24
2522 H 29.8836234583506 112.99161256032491 55.49075956905437 H 0.0 **** 0.06
2523 H 28.889303452221412 111.74356701016467 54.70198484916481 H 0.0 **** 0.06
2524 H 28.146629193341084 113.27534468144506 55.224476746740244 H 0.0 **** 0.06
2525 H 28.679335531301575 112.08568105998475 56.43691024589992 H 0.0 **** 0.06
2526 C 52.49603989144462 33.0428468990458 10.208010163872473 C 0.0 **** -0.24
2527 H 52.25070521128357 34.10408986896345 10.234387527141337 H 0.0 **** 0.06
2528 H 52.81069488548473 32.76787514753487 9.200951883680574 H 0.0 **** 0.06
2529 H 51.61847315340619 32.459835071117666 10.486675506714192 H 0.0 **** 0.06
2530 H 53.30481624391095 32.84043558413788 10.910027278823136 H 0.0 **** 0.06
2531 C 18.180693226141756 109.4114054122035 89.20288564849531 C 0.0 **** -0.24
2532 H 18.533496648402377 110.04962141797375 90.01206953032911 H 0.0 **** 0.06
2533 H 18.974712010244772 109.28614709818706 88.4662411376467 H 0.0 **** 0.06
2534 H 17.313965160980658 109.87226489406514 88.7283736809058 H 0.0 **** 0.06
2535 H 17.90059908493913 108.43758823858815 89.60485824509959 H 0.0 **** 0.06
2536 C 14.93742531770016 64.40748944919847 78.39658162594844 C 0.0 **** -0.24
2537 H 15.440766940085425 64.82256248379119 79.26965673406326 H 0.0 **** 0.06
2538 H 14.621874644638421 65.21944301710968 77.74015657989915 H 0.0 **** 0.06
2539 H 14.064849842854802 63.83838973341934 78.71704241127887 H 0.0 **** 0.06
2540 H 15.623153544947396 63.75149325230988 77.86008896671328 H 0.0 **** 0.06
2541 C 57.689761181124254 28.805577067046983 5.544095469557391 C 0.0 **** -0.24
2542 H 57.16410945353215 28.0412982669489 4.970472050728787 H 0.0 **** 0.06
2543 H 58.543365115395034 29.166713592275613 4.971320430076233 H 0.0 **** 0.06
2544 H 58.036505359136356 28.37777995307593 6.4852037108202865 H 0.0 **** 0.06
2545 H 57.01198457936812 29.634936544792282 5.749515480512699 H 0.0 **** 0.06
2546 C 8.084537096619385 114.69238960695193 11.869364370205801 C 0.0 **** -0.24
2547 H 8.843808923728574 114.31690162371764 12.555404192784948 H 0.0 **** 0.06
2548 H 7.5699056600187475 113.85181403757922 11.402993473373243 H 0.0 **** 0.06
2549 H 8.55960874872676 115.30005339984348 11.099108427289508 H 0.0 **** 0.06
2550 H 7.365670758980798 115.29900452395482 12.41963618297089 H 0.0 **** 0.06
2551 C 16.6888738799058 115.42223973117623 81.1470810917952 C 0.0 **** -0.24
2552 H 15.89361346504299 114.91289226161001 80.60214656409326 H 0.0 **** 0.06
2553 H 16.72273714429801 116.46977145525142 80.84488043876789 H 0.0 **** 0.06
2554 H 17.64421249927284 114.9476222688578 80.92134451482809 H 0.0 **** 0.06
2555 H 16.494806977627178 115.35841435790411 82.21752020614727 H 0.0 **** 0.06
2556 C 92.48340882616102 4.784990598554828 104.4750033064503 C 0.0 **** -0.24
2557 H 91.7437591605835 5.43735209789817 104.01043314181894 H 0.0 **** 0.06
2558 H 91.98059994938075 3.9235438324217 104.9164411499656 H 0.0 **** 0.06
2559 H 93.01439049012464 5.3333123928798045 105.25221381000645 H 0.0 **** 0.06
2560 H 93.19222118923278 4.444811169593805 103.72081666449753 H 0.0 **** 0.06
2561 C 49.64930256129239 2.8553676953778506 61.94069347292924 C 0.0 **** -0.24
2562 H 48.640775353860334 3.1304665721717413 61.63123091192409 H 0.0 **** 0.06
2563 H 49.62096130713593 1.8940480702232207 62.45506299332959 H 0.0 **** 0.06
2564 H 50.04302453335404 3.6163940303835034 62.612649836757555 H 0.0 **** 0.06
2565 H 50.29040958740498 2.7791195286034878 61.0621688012846 H 0.0 **** 0.06
2566 C 17.967168099931996 61.71596135276758 47.180441817988 C 0.0 **** -0.24
2567 H 18.98256116707597 61.83483112364047 46.802236224075216 H 0.0 **** 0.06
2568 H 17.260438641092435 62.132430873904354 46.46196131079057 H 0.0 **** 0.06
2569 H 17.87077490241319 62.23981434333632 48.13199162063992 H 0.0 **** 0.06
2570 H 17.75545751378843 60.656189182833145 47.32674020256229 H 0.0 **** 0.06
2571 C 42.10951465006065 102.92525861515213 86.1812523813459 C 0.0 **** -0.24
2572 H 42.980152973778395 103.57990345281087 86.15040467373021 H 0.0 **** 0.06
2573 H 42.43412247428826 101.8958835927823 86.3339429325217 H 0.0 **** 0.06
2574 H 41.56543234575474 102.9990965463075 85.23972119924969 H 0.0 **** 0.06
2575 H 41.45839896432605 103.22639521287124 87.00190924210943 H 0.0 **** 0.06
2576 C 80.05394981112676 69.1604802901553 79.31595804368783 C 0.0 **** -0.24
2577 H 79.94801071629374 69.81174536323914 80.18362519681389 H 0.0 **** 0.06
2578 H 79.11166719268675 68.64409149487025 79.13161685546564 H 0.0 **** 0.06
2579 H 80.83903620057583 68.4285820598954 79.50617612291964 H 0.0 **** 0.06
2580 H 80.3188419692994 69.75834710176298 78.44389727209759 H 0.0 **** 0.06
2581 C 100.72624050291716 95.71387912181936 59.74619028174809 C 0.0 **** -0.24
2582 H 100.03025927693642 94.94589092985473 60.083695599467525 H 0.0 **** 0.06
2583 H 100.49406043439751 95.98658611882652 58.71520092143154 H 0.0 **** 0.06
2584 H 101.7451442530924 95.33093203465393 59.80077258094095 H 0.0 **** 0.06
2585 H 100.63370228330564 96.59281734083322 60.38396441072944 H 0.0 **** 0.06
2586 C 2.923704186078453 85.13224267926006 86.6248643991114 C 0.0 **** -0.24
2587 H 2.160632032605605 85.90504248151143 86.54866230153976 H 0.0 **** 0.06
2588 H 3.911853114447865 85.5862900094159 86.53840977592779 H 0.0 **** 0.06
2589 H 2.7866808072884055 84.40608177112881 85.82324445663079 H 0.0 **** 0.06
2590 H 2.8380375731684353 84.62989384692509 87.58840653703066 H 0.0 **** 0.06
2591 C 102.20571417925217 101.30110092025649 87.09193596821828 C 0.0 **** -0.24
2592 H 102.66143963575448 102.25465760444138 87.3595991085163 H 0.0 **** 0.06
2593 H 102.83235484057991 100.48517437001703 87.45244107439024 H 0.0 **** 0.06
2594 H 102.11072746284475 101.23608981611676 86.00777653281975 H 0.0 **** 0.06
2595 H 101.2180304815515 101.22943112747453 87.54784708589321 H 0.0 **** 0.06
2596 C 68.55673261791665 107.81521725748291 7.2945816007668896 C 0.0 **** -0.24
2597 H 68.86326688623893 108.70642206776279 6.746281189459538 H 0.0 **** 0.06
2598 H 69.21158024199639 106.98457195423873 7.030538871557301 H 0.0 **** 0.06
2599 H 67.52835327105319 107.56481766450139 7.033929461082394 H 0.0 **** 0.06
2600 H 68.62471956260794 108.00589490377416 8.365062945762297 H 0.0 **** 0.06
2601 C 116.91563758980055 7.52919645379518 50.073980765573 C 0.0 **** -0.24
2602 H 117.32825286783338 7.776952324283627 51.052000823353495 H 0.0 **** 0.06
2603 H 115.839120618111 7.705470689016295 50.07880602166486 H 0.0 **** 0.06
2604 H 117.11059822097712 6.4802561945849675 49.85251923636284 H 0.0 **** 0.06
2605 H 117.38190768037612 8.155159701976743 49.313467284136664 H 0.0 **** 0.06
2606 C 35.80556151286743 99.2250330626679 96.86660516294356 C 0.0 **** -0.24
2607 H 36.469107825708136 98.40981149407546 97.1566115518994 H 0.0 **** 0.06
2608 H 35.29659331793704 99.61045761733726 97.75101058823577 H 0.0 **** 0.06
2609 H 35.06760404960016 98.85704126151884 96.15462741316458 H 0.0 **** 0.06
2610 H 36.38833333501054 100.02233807592725 96.40689089990428 H 0.0 **** 0.06
2611 C 13.85818500879813 19.716362748139915 30.04123782738742 C 0.0 **** -0.24
2612 H 12.861664929442611 19.431903353952862 30.378441221090725 H 0.0 **** 0.06
2613 H 14.004930333545076 19.37676338116023 29.01511904909694 H 0.0 **** 0.06
2614 H 14.605368433511472 19.25559980073791 30.68715886561199 H 0.0 **** 0.06
2615 H 13.960092380118766 20.801132324437674 30.083504477760812 H 0.0 **** 0.06
2616 C 47.94104261453552 42.86210234836875 22.61572430302124 C 0.0 **** -0.24
2617 H 48.898715043556415 42.356159054335876 22.494693516468203 H 0.0 **** 0.06
2618 H 47.964856635620365 43.47235083996803 23.518982451967503 H 0.0 **** 0.06
2619 H 47.14700295345519 42.12058643075888 22.698432682845663 H 0.0 **** 0.06
2620 H 47.75565457184261 43.49875599095091 21.751460513951073 H 0.0 **** 0.06
2621 C 93.70343563398603 80.10514938746644 52.832331889975876 C 0.0 **** -0.24
2622 H 94.43593683017644 80.85943347596299 53.12133385301519 H 0.0 **** 0.06
2623 H 93.01943341805566 79.92748110322424 53.661446143612864 H 0.0 **** 0.06
2624 H 94.21779734728602 79.17741888319878 52.58029072659167 H 0.0 **** 0.06
2625 H 93.14280100323964 80.45647426679534 51.96628443733334 H 0.0 **** 0.06
2626 C 21.2642590562381 14.044599945199451 73.64613480690991 C 0.0 **** -0.24
2627 H 20.728046213558812 14.494454195849016 74.4813368614208 H 0.0 **** 0.06
2628 H 22.076097414972068 14.703418397645663 73.3375455819604 H 0.0 **** 0.06
2629 H 20.578390327085746 13.897100118975942 72.81142018216451 H 0.0 **** 0.06
2630 H 21.674329419597747 13.082640080171728 73.95364429206592 H 0.0 **** 0.06
2631 C 79.68543752790785 62.18426835889131 50.1050149591814 C 0.0 **** -0.24
2632 H 80.58605319732814 62.48016878503791 49.56670097716707 H 0.0 **** 0.06
2633 H 79.96360270511795 61.633181475360765 51.00331276330209 H 0.0 **** 0.06
2634 H 79.07189160459134 61.55001006147085 49.46396857028702 H 0.0 **** 0.06
2635 H 79.1204336719268 63.07395895882967 50.38410612994343 H 0.0 **** 0.06
2636 C 14.229694443794585 51.093382810708746 85.62282518597928 C 0.0 **** -0.24
2637 H 14.026789757890356 50.20845445999487 86.22631428541911 H 0.0 **** 0.06
2638 H 15.305722353983185 51.26103117892109 85.57444604895286 H 0.0 **** 0.06
2639 H 13.74600298066764 51.95961226007083 86.07485251947782 H 0.0 **** 0.06
2640 H 13.83882060135727 50.9435061889327 84.61593479292179 H 0.0 **** 0.06
2641 C 93.08507494650112 64.91054070331012 55.91574691095326 C 0.0 **** -0.24
2642 H 93.30885064765474 65.83051237406508 55.377274972334874 H 0.0 **** 0.06
2643 H 93.77124871046297 64.80512557928915 56.756394766905885 H 0.0 **** 0.06
2644 H 93.20013147483877 64.05980042161193 55.24308606204016 H 0.0 **** 0.06
2645 H 92.0595059566235 64.9455758569801 56.28439769727376 H 0.0 **** 0.06
2646 C 54.56547582722962 64.01303605681753 23.136283146319244 C 0.0 **** -0.24
2647 H 53.7842971860772 64.75470610110813 22.96884342653803 H 0.0 **** 0.06
2648 H 55.54249773672097 64.48027776684827 23.01265488906401 H 0.0 **** 0.06
2649 H 54.45573362484501 63.20236884691575 22.41591525691834 H 0.0 **** 0.06
2650 H 54.477207439671446 63.61492732028977 24.14718556540737 H 0.0 **** 0.06
2651 C 75.26439565411849 59.857709432954806 98.71206335274621 C 0.0 **** -0.24
2652 H 76.26638999856425 59.88161816540574 98.28519077426415 H 0.0 **** 0.06
2653 H 74.83455959863002 60.85941306047971 98.6867568588176 H 0.0 **** 0.06
2654 H 75.31754008178217 59.51166148502608 99.7441418559066 H 0.0 **** 0.06
2655 H 74.63834090099897 59.178937216372816 98.1330622451938 H 0.0 **** 0.06
2656 C 69.7450422323825 79.74318756982893 115.19408544874028 C 0.0 **** -0.24
2657 H 70.63134610480853 80.26130152599552 114.82710046852871 H 0.0 **** 0.06
2658 H 68.85212052832287 80.27604931598285 114.86625806217616 H 0.0 **** 0.06
2659 H 69.76924546275717 79.70995747684239 116.28276375934759 H 0.0 **** 0.06
2660 H 69.72868989795307 78.72776541630506 114.79877671853286 H 0.0 **** 0.06
2661 C 0.20312104836840206 94.80669730515015 34.35038733732057 C 0.0 **** -0.24
2662 H -0.5350795513327 95.5828431319469 34.14780373538673 H 0.0 **** 0.06
2663 H 1.0371579044012549 95.23525261798895 34.9061187801492 H 0.0 **** 0.06
2664 H 0.5661514970017407 94.39535589979204 33.408593462321676 H 0.0 **** 0.06
2665 H -0.25703758743975413 94.01312877958964 34.939569503883774 H 0.0 **** 0.06
2666 C 88.40989753804982 71.96947160366759 98.46410834746638 C 0.0 **** -0.24
2667 H 88.34191121484298 72.95560391139165 98.92395998279392 H 0.0 **** 0.06
2668 H 88.40348062653402 71.20507576873598 99.24229631085049 H 0.0 **** 0.06
2669 H 89.33524211105092 71.89900527273065 97.89263002780459 H 0.0 **** 0.06
2670 H 87.55942130364681 71.81859385079858 97.79916876041682 H 0.0 **** 0.06
2671 C 37.28075087383222 30.143711963683103 113.20891058371791 C 0.0 **** -0.24
2672 H 36.36163929238478 30.72725800836588 113.27028272556618 H 0.0 **** 0.06
2673 H 37.6926547309165 30.220474736916714 112.20268582996967 H 0.0 **** 0.06
2674 H 37.06341127026245 29.09992615700449 113.43416869896006 H 0.0 **** 0.06
2675 H 38.003624521682724 30.528644699914423 113.92878772340129 H 0.0 **** 0.06
2676 C 10.561909993929618 97.06666259320903 106.94846766194482 C 0.0 **** -0.24
2677 H 9.725781384558786 97.39117574094817 107.56756677468775 H 0.0 **** 0.06
2678 H 10.277926403238865 96.16972582752413 106.39690950421507 H 0.0 **** 0.06
2679 H 11.419912616788878 96.84707169619443 107.58320529136978 H 0.0 **** 0.06
2680 H 10.823102521818527 97.85843647656179 106.24513968048825 H 0.0 **** 0.06
2681 C 54.4307764485369 109.85417320128141 9.313813967163483 C 0.0 **** -0.24
2682 H 55.27549381783501 110.1168668402031 8.677594553676052 H 0.0 **** 0.06
2683 H 54.53376611324268 110.3528614488495 10.2782038274688 H 0.0 **** 0.06
2684 H 54.40982410828826 108.7745261194784 9.462709084120707 H 0.0 **** 0.06
2685 H 53.50400290833551 110.17290799516354 8.83586569134349 H 0.0 **** 0.06
2686 C 106.01837506266506 105.1041717561111 106.56572236995711 C 0.0 **** -0.24
2687 H 105.7407827451201 104.60013624143588 107.49119589502595 H 0.0 **** 0.06
2688 H 106.81993545884006 105.81550031168541 106.76608758058731 H 0.0 **** 0.06
2689 H 105.1536321266795 105.63381072383578 106.16649716668218 H 0.0 **** 0.06
2690 H 106.36040616015589 104.36723024634409 105.83845930880582 H 0.0 **** 0.06
2691 C 22.97425575429787 58.910044170708424 50.15687037134239 C 0.0 **** -0.24
2692 H 22.532809348067076 58.404381912730166 49.2986831778106 H 0.0 **** 0.06
2693 H 23.000387781638253 59.98455820405635 49.971111451957796 H 0.0 **** 0.06
2694 H 23.988583802852588 58.54391252101346 50.31323453271281 H 0.0 **** 0.06
2695 H 22.374109234844667 58.709457911972656 51.04485681589517 H 0.0 **** 0.06
2696 C 103.2439810305699 100.90435665193581 15.795517274353074 C 0.0 **** -0.24
2697 H 103.50530473979188 99.92303702986567 15.398891107612911 H 0.0 **** 0.06
2698 H 104.08978920662614 101.58192229661202 15.675001927322086 H 0.0 **** 0.06
2699 H 102.9980951568983 100.81420023888029 16.85376466952303 H 0.0 **** 0.06
2700 H 102.38378274914916 101.29691145277866 15.254665978794549 H 0.0 **** 0.06
2701 C 103.92529618400835 93.71614075743275 28.09179692165233 C 0.0 **** -0.24
2702 H 105.01515202639675 93.6870747728517 28.092802684573172 H 0.0 **** 0.06
2703 H 103.53759725392752 92.82386022272271 28.583699936676197 H 0.0 **** 0.06
2704 H 103.56369629029362 93.75103418819094 27.064490010628987 H 0.0 **** 0.06
2705 H 103.58559047066092 94.60269283595082 28.627320042499463 H 0.0 **** 0.06
2706 C 86.62443085343264 63.71973728477436 109.50689652007574 C 0.0 **** -0.24
2707 H 87.29862613653825 64.12935036027145 110.25888082860936 H 0.0 **** 0.06
2708 H 87.09505551225669 62.8608286152216 109.02638531914613 H 0.0 **** 0.06
2709 H 86.40943833726382 64.48193384077439 108.75819218921626 H 0.0 **** 0.06
2710 H 85.69493774612803 63.40628329286276 109.98336456079522 H 0.0 **** 0.06
2711 C 100.53947568792162 51.761836338549415 48.87081342970157 C 0.0 **** -0.24
2712 H 100.07373158320897 51.18055029214594 49.66683701704619 H 0.0 **** 0.06
2713 H 100.31218798895344 51.304525786493286 47.90695969085533 H 0.0 **** 0.06
2714 H 101.61859806227238 51.780804548858214 49.01946944439325 H 0.0 **** 0.06
2715 H 100.15086239576297 52.78041459079947 48.89122595978745 H 0.0 **** 0.06
2716 C 107.41609389701077 35.247068154685564 91.78723937891311 C 0.0 **** -0.24
2717 H 106.74479322278427 36.09496758078902 91.65046018459265 H 0.0 **** 0.06
2718 H 108.44684338583431 35.57268064488849 91.64607782663802 H 0.0 **** 0.06
2719 H 107.1767467821189 34.47279657558778 91.0582077887471 H 0.0 **** 0.06
2720 H 107.29521738007367 34.846687933225226 92.79389479412822 H 0.0 **** 0.06
2721 C 38.10706977969999 95.87263367773753 97.42147442231663 C 0.0 **** -0.24
2722 H 38.55775896100438 96.84317118279856 97.21347250985565 H 0.0 **** 0.06
2723 H 38.41903480591815 95.53118411115796 98.40958003995775 H 0.0 **** 0.06
2724 H 38.43011623157537 95.15308423278648 96.66905355344028 H 0.0 **** 0.06
2725 H 37.02112640269532 95.9639822204287 97.39486600307413 H 0.0 **** 0.06
2726 C 38.723712917830426 66.76406104536065 22.0986204997613 C 0.0 **** -0.24
2727 H 39.73611520235994 66.81999399188993 22.498866298739753 H 0.0 **** 0.06
2728 H 38.042405881066 66.42466418672407 22.878996100383887 H 0.0 **** 0.06
2729 H 38.70059862852631 66.06186581438618 21.265214139750725 H 0.0 **** 0.06
2730 H 38.41679657507251 67.75042162271603 21.75079333233994 H 0.0 **** 0.06
2731 C 49.325486206040466 96.82109941607439 24.39476291256537 C 0.0 **** -0.24
2732 H 49.856964247348344 97.7322372023122 24.666414339411745 H 0.0 **** 0.06
2733 H 48.77282505436983 96.45244303605918 25.2587962927158 H 0.0 **** 0.06
2734 H 50.04253173438778 96.06513470238102 24.07238624357646 H 0.0 **** 0.06
2735 H 48.63171696777377 97.03375694032843 23.582422778739897 H 0.0 **** 0.06
2736 C 13.38623411986967 3.2422905874352885 113.2041540784104 C 0.0 **** -0.24
2737 H 13.511393969108951 2.6483340600404865 114.110005213198 H 0.0 **** 0.06
2738 H 14.2835477311271 3.839274728533141 113.03553350329821 H 0.0 **** 0.06
2739 H 12.52615911723629 3.9024872371489234 113.31818026556714 H 0.0 **** 0.06
2740 H 13.22578453122486 2.5794188080496596 112.35393557845066 H 0.0 **** 0.06
2741 C 8.134653118215013 41.10204383731305 57.12576218609729 C 0.0 **** -0.24
2742 H 8.370574892045177 40.882424950417985 56.08378036327338 H 0.0 **** 0.06
2743 H 7.136569912630296 41.53545884349749 57.187518971641 H 0.0 **** 0.06
2744 H 8.863577598121466 41.80930519879783 57.52114178220717 H 0.0 **** 0.06
2745 H 8.167818655839955 40.18158447645225 57.70766863431021 H 0.0 **** 0.06
2746 C 86.61176888529403 39.39058782308186 113.32263598095392 C 0.0 **** -0.24
2747 H 87.1758528469241 38.55079324377925 112.91695394609474 H 0.0 **** 0.06
2748 H 85.54794334418864 39.234701593580894 113.13990572166813 H 0.0 **** 0.06
2749 H 86.93250228959946 40.311763454774564 112.83811973127547 H 0.0 **** 0.06
2750 H 86.79026331966637 39.462321757064615 114.39532630138393 H 0.0 **** 0.06
2751 C 0.1374275447240052 82.883926119357 82.41608814662933 C 0.0 **** -0.24
2752 H -0.9238768513279467 82.63529712583076 82.38420969049247 H 0.0 **** 0.06
2753 H 0.2591892199799304 83.91382047826562 82.75284818102094 H 0.0 **** 0.06
2754 H 0.5656830481651411 82.77489198352947 81.41882416393486 H 0.0 **** 0.06
2755 H 0.6468399361923503 82.21196362067954 83.10614389281386 H 0.0 **** 0.06
2756 C 5.512252633650116 25.86474274662038 104.98394267724552 C 0.0 **** -0.24
2757 H 4.656520150384408 25.197015355344774 105.07990398706443 H 0.0 **** 0.06
2758 H 5.408101488793763 26.690252098067845 105.68829517269091 H 0.0 **** 0.06
2759 H 5.554882120473552 26.257132779352617 103.96811477137601 H 0.0 **** 0.06
2760 H 6.427845117674465 25.315163391328497 105.20083081153129 H 0.0 **** 0.06
2761 C 65.48932325026774 18.685252674832995 98.74623165035894 C 0.0 **** -0.24
2762 H 66.56197952182768 18.500518720445896 98.80607703402 H 0.0 **** 0.06
2763 H 65.2256653015605 19.510137214688484 99.40924645812015 H 0.0 **** 0.06
2764 H 64.9488099116542 17.78897478214543 99.04956117825117 H 0.0 **** 0.06
2765 H 65.2215711401291 18.942595555422116 97.7220383348826 H 0.0 **** 0.06
2766 C 44.20194843654209 66.78684145249034 103.31369971833578 C 0.0 **** -0.24
2767 H 43.89205625314543 65.81896294096885 103.70613126140401 H 0.0 **** 0.06
2768 H 44.82887940538023 66.63727656972773 102.43425528106391 H 0.0 **** 0.06
2769 H 44.766472485196715 67.32451980819494 104.07523049959451 H 0.0 **** 0.06
2770 H 43.32083033078177 67.36519149080627 103.03750842644229 H 0.0 **** 0.06
2771 C 103.08426526976183 109.13434596006962 28.43288707153907 C 0.0 **** -0.24
2772 H 103.64865118962967 108.93825403472846 29.344364465823944 H 0.0 **** 0.06
2773 H 102.095697424133 109.51478006605157 28.69347905212411 H 0.0 **** 0.06
2774 H 102.9797452098494 108.21116954831331 27.863538852761025 H 0.0 **** 0.06
2775 H 103.61088416919785 109.87517270012266 27.83146639437568 H 0.0 **** 0.06
2776 C 110.15559359243474 31.78757135634895 66.50183477630557 C 0.0 **** -0.24
2777 H 109.25984913433246 31.17370774496254 66.59820864935563 H 0.0 **** 0.06
2778 H 109.99822891890017 32.740282549190624 67.00803073068212 H 0.0 **** 0.06
2779 H 110.36118943050946 31.965882857667452 65.44666422570549 H 0.0 **** 0.06
2780 H 111.00069247720637 31.270703630011212 66.95472891551265 H 0.0 **** 0.06
2781 C 92.1646722203541 26.431215525928735 15.745129649013933 C 0.0 **** -0.24
2782 H 92.89510224395397 25.641677511337534 15.92597312057228 H 0.0 **** 0.06
2783 H 92.63924799761378 27.247820310405857 15.200425999515204 H 0.0 **** 0.06
2784 H 91.78697634622415 26.800420895853506 16.698522946844093 H 0.0 **** 0.06
2785 H 91.33816378902085 26.032749383952307 15.15719165548046 H 0.0 **** 0.06
2786 C 108.97502427022738 77.89851440491054 68.21733773298672 C 0.0 **** -0.24
2787 H 108.08690097247708 77.43138362715209 67.79356382713834 H 0.0 **** 0.06
2788 H 108.75568671432143 78.93803644196225 68.46486884336497 H 0.0 **** 0.06
2789 H 109.7870497094581 77.86119295304528 67.49152967734062 H 0.0 **** 0.06
2790 H 109.27046504141148 77.36420343969127 69.12094560224111 H 0.0 **** 0.06
2791 C 110.91382547775775 96.73119644452922 8.004629320547707 C 0.0 **** -0.24
2792 H 111.20484038493709 96.75152287085615 9.05539989253134 H 0.0 **** 0.06
2793 H 111.49652440557537 95.97171618979556 7.482304389095361 H 0.0 **** 0.06
2794 H 111.10125219187786 97.70687091062905 7.556079276665599 H 0.0 **** 0.06
2795 H 109.85257039708496 96.492803763875 7.925951357039281 H 0.0 **** 0.06
2796 C 105.99807311304636 8.737650716845849 26.236443038067968 C 0.0 **** -0.24
2797 H 105.77082458568628 7.8261569778173765 26.789021378541676 H 0.0 **** 0.06
2798 H 105.18884656666256 8.950482324482806 25.537135712581318 H 0.0 **** 0.06
2799 H 106.92930162204965 8.604592596865501 25.685092319018715 H 0.0 **** 0.06
2800 H 106.10439625937255 9.568471101794898 26.93309745382787 H 0.0 **** 0.06
2801 C 27.737645214646854 77.68203718064152 96.91166455426546 C 0.0 **** -0.24
2802 H 26.837878962400985 77.11145437729238 96.68044700622025 H 0.0 **** 0.06
2803 H 27.518599521286475 78.3994806515501 97.7028595076263 H 0.0 **** 0.06
2804 H 28.06954393853065 78.21428725231007 96.01988616059518 H 0.0 **** 0.06
2805 H 28.52282715331473 77.00296987189583 97.24343474564719 H 0.0 **** 0.06
2806 C 10.220251001020188 60.61243817808258 27.20080752910755 C 0.0 **** -0.24
2807 H 9.243234659008863 60.23887738005673 26.894737360023555 H 0.0 **** 0.06
2808 H 10.312059476444603 60.54616400013072 28.28492260962726 H 0.0 **** 0.06
2809 H 10.325331204763359 61.651496360104595 26.88982879551409 H 0.0 **** 0.06
2810 H 11.000967774242923 60.01245991546944 26.732700699711387 H 0.0 **** 0.06
2811 C 51.40543538843002 98.15002978559477 111.6798299576956 C 0.0 **** -0.24
2812 H 52.27812678022059 97.62866720528046 111.28533608151024 H 0.0 **** 0.06
2813 H 51.67861786092439 98.66981116648435 112.5998051751931 H 0.0 **** 0.06
2814 H 50.61619329389677 97.42857700474283 111.89029930595025 H 0.0 **** 0.06
2815 H 51.051760704364824 98.87286326848167 110.94498200591417 H 0.0 **** 0.06
2816 C 45.109533723564 57.94691749538708 117.10825023096058 C 0.0 **** -0.24
2817 H 45.56708302148567 57.80048917508077 118.08660494602174 H 0.0 **** 0.06
2818 H 45.16775735179306 59.00061420057912 116.83361430882772 H 0.0 **** 0.06
2819 H 44.06359758284552 57.63867546190335 117.14730338903013 H 0.0 **** 0.06
2820 H 45.6369764756858 57.34710233547892 116.36646691146456 H 0.0 **** 0.06
2821 C 56.93732276320413 47.214216651920395 29.651589003491175 C 0.0 **** -0.24
2822 H 56.86840430175024 46.75883052660578 28.662704579522483 H 0.0 **** 0.06
2823 H 56.537665914539126 46.52668229313295 30.396353006025983 H 0.0 **** 0.06
2824 H 56.363572170550945 48.14044815493665 29.665765823373903 H 0.0 **** 0.06
2825 H 57.981734741610005 47.430719678291354 29.878431874626386 H 0.0 **** 0.06
2826 C 112.52852013946253 18.6814970219576 35.53219216122375 C 0.0 **** -0.24
2827 H 111.67143267305954 18.468647997402417 36.17031039330749 H 0.0 **** 0.06
2828 H 112.778274137793 17.79315561015328 34.95092877748283 H 0.0 **** 0.06
2829 H 113.38122281172993 18.96278047588361 36.149907566931574 H 0.0 **** 0.06
2830 H 112.284211598182 19.5016980919869 34.856284490879716 H 0.0 **** 0.06
2831 C 75.49953648530476 78.30902718518286 72.65580150091427 C 0.0 **** -0.24
2832 H 74.50981497212129 78.05492233313043 72.27539821226836 H 0.0 **** 0.06
2833 H 75.94800324849089 77.42973268918144 73.11853937348087 H 0.0 **** 0.06
2834 H 75.41154114835268 79.1047586628373 73.3953715065602 H 0.0 **** 0.06
2835 H 76.12867584293849 78.64649182211656 71.83090576404228 H 0.0 **** 0.06
2836 C 81.14158287053121 35.100966677307724 84.0871805170498 C 0.0 **** -0.24
2837 H 82.12425016668388 34.732541579684266 83.79228813792085 H 0.0 **** 0.06
2838 H 80.37444750503411 34.60344761694557 83.49280373818488 H 0.0 **** 0.06
2839 H 81.09098537063261 36.17620352819631 83.92006352193204 H 0.0 **** 0.06
2840 H 80.97649893436599 34.888723521911004 85.14408911272358 H 0.0 **** 0.06
2841 C 45.7173109200715 87.97992126825466 74.35403767134329 C 0.0 **** -0.24
2842 H 45.78055235616574 89.0332134519019 74.08017879418935 H 0.0 **** 0.06
2843 H 46.716412231024265 87.54557470726769 74.36264791199562 H 0.0 **** 0.06
2844 H 45.09690240827689 87.45322392223838 73.6283333211843 H 0.0 **** 0.06
2845 H 45.27220743881287 87.88952646818777 75.34571268580487 H 0.0 **** 0.06
2846 C 85.24279209777418 85.96642700067898 81.11067761054483 C 0.0 **** -0.24
2847 H 84.8507521551351 86.94322123357338 81.39488934188759 H 0.0 **** 0.06
2848 H 86.31508746629089 85.93560281564913 81.30853156565357 H 0.0 **** 0.06
2849 H 85.06357860474549 85.79709778500464 80.04966836562261 H 0.0 **** 0.06
2850 H 84.74374960483618 85.19172756575705 81.69211797427482 H 0.0 **** 0.06
2851 C 10.07033484046687 97.13699906911876 44.39332311376714 C 0.0 **** -0.24
2852 H 10.130330570024455 96.23853832180473 45.00844540392427 H 0.0 **** 0.06
2853 H 9.069281438904852 97.22069093835023 43.96966363189743 H 0.0 **** 0.06
2854 H 10.802852351124073 97.0753483419179 43.58898250844176 H 0.0 **** 0.06
2855 H 10.279233980917411 98.01202604068328 45.00918961444884 H 0.0 **** 0.06
2856 C 98.88474157813761 107.96365439484839 83.39580744686103 C 0.0 **** -0.24
2857 H 98.82019917086228 107.1188938481771 84.08082452923105 H 0.0 **** 0.06
2858 H 98.05743814460817 107.92038259707124 82.68707676536434 H 0.0 **** 0.06
2859 H 99.8301871649266 107.92112300445865 82.85425934914636 H 0.0 **** 0.06
2860 H 98.83202791467505 108.89385626176886 83.96077937149366 H 0.0 **** 0.06
2861 C 14.637197310655097 108.48024387261785 47.948619958620924 C 0.0 **** -0.24
2862 H 15.65515483623959 108.79156752267971 47.7115678472539 H 0.0 **** 0.06
2863 H 14.011658943491426 108.58052966538571 47.06090369994354 H 0.0 **** 0.06
2864 H 14.24140747241377 109.1099138129758 48.745605373851845 H 0.0 **** 0.06
2865 H 14.641991023357917 107.44059842966493 48.275260298856026 H 0.0 **** 0.06
2866 C 66.96192218793206 64.62849004912508 55.58464249868809 C 0.0 **** -0.24
2867 H 65.87800077918254 64.60750104544334 55.69338234814352 H 0.0 **** 0.06
2868 H 67.23028016230259 65.24464172407673 54.72604380076472 H 0.0 **** 0.06
2869 H 67.33136761056002 63.61407949513788 55.43378863888481 H 0.0 **** 0.06
2870 H 67.40909130944141 65.04740738460205 56.48669165092509 H 0.0 **** 0.06
2871 C 70.75691387506026 104.46363145616485 55.681319129164194 C 0.0 **** -0.24
2872 H 69.73248943600095 104.65838893750572 55.9968339345628 H 0.0 **** 0.06
2873 H 71.2632679428549 103.86566372520912 56.440310455015606 H 0.0 **** 0.06
2874 H 71.28369758797021 105.40983015165668 55.55375512921461 H 0.0 **** 0.06
2875 H 70.75024505714146 103.92133712738794 54.73645994078419 H 0.0 **** 0.06
2876 C 21.64049065112005 6.833898255454969 27.870888475834448 C 0.0 **** -0.24
2877 H 21.006976598228942 6.18547657110088 28.47614696177243 H 0.0 **** 0.06
2878 H 22.631949359682075 6.390572006350718 27.780511423850044 H 0.0 **** 0.06
2879 H 21.720513277293556 7.810307992440624 28.347295753767497 H 0.0 **** 0.06
2880 H 21.200795540761632 6.947507579205126 26.87943864571011 H 0.0 **** 0.06
2881 C 21.93482626065662 86.34583478830356 14.957111654106825 C 0.0 **** -0.24
2882 H 22.238102893930858 86.70230609757294 15.94127019323912 H 0.0 **** 0.06
2883 H 20.852405556829723 86.43282580695634 14.856311725470846 H 0.0 **** 0.06
2884 H 22.22827145041333 85.3017951236094 14.84345109049562 H 0.0 **** 0.06
2885 H 22.42052514145243 86.94641212507562 14.18741360722143 H 0.0 **** 0.06
2886 C 20.33557984515741 118.09344215947206 76.72958621448515 C 0.0 **** -0.24
2887 H 19.39524036711252 117.78195329857682 76.2749611868851 H 0.0 **** 0.06
2888 H 20.98358881954131 117.22659512382216 76.85418991705671 H 0.0 **** 0.06
2889 H 20.136784291467137 118.54152389117827 77.70346130682947 H 0.0 **** 0.06
2890 H 20.825692955294926 118.82536163696915 76.08618067247698 H 0.0 **** 0.06
2891 C 48.08596930757171 105.95224156135919 79.85871922361548 C 0.0 **** -0.24
2892 H 48.44634127305705 104.96838888073836 80.16059431188194 H 0.0 **** 0.06
2893 H 47.17397607685735 106.18761836459382 80.40725333580218 H 0.0 **** 0.06
2894 H 47.87676610005242 105.94875397066752 78.78887463764389 H 0.0 **** 0.06
2895 H 48.84731348905441 106.70093222832008 80.07829360489444 H 0.0 **** 0.06
2896 C 71.88957298307503 97.55028743625843 53.47848906435604 C 0.0 **** -0.24
2897 H 71.58179324626417 96.94697299405442 54.33234728935315 H 0.0 **** 0.06
2898 H 72.33901247478136 96.90589833952589 52.721766190644416 H 0.0 **** 0.06
2899 H 72.61759447781901 98.29351524913017 53.80229709534888 H 0.0 **** 0.06
2900 H 71.01938565945179 98.05311343759098 53.05739577174728 H 0.0 **** 0.06
2901 C 57.06306276414119 85.33225896630793 8.059800450615086 C 0.0 **** -0.24
2902 H 56.445637366083275 84.73179890049033 8.727593931939026 H 0.0 **** 0.06
2903 H 56.526059338379525 85.50769173109296 7.127054881277886 H 0.0 **** 0.06
2904 H 57.99339069362608 84.80365577531617 7.85087173686469 H 0.0 **** 0.06
2905 H 57.28760643212138 86.28825652185449 8.534129931697137 H 0.0 **** 0.06
2906 C 65.03737206052111 32.04966309912277 0.9509699212811569 C 0.0 **** -0.24
2907 H 64.65176882366075 33.0082920960748 0.6030616084850919 H 0.0 **** 0.06
2908 H 65.18241150113181 32.08675197699006 2.030630767883949 H 0.0 **** 0.06
2909 H 65.98889914124081 31.842246573617388 0.46199841430525623 H 0.0 **** 0.06
2910 H 64.32469006446644 31.262335454522713 0.7067403500196008 H 0.0 **** 0.06
2911 C 32.666784575118484 53.414554314268685 70.3672088279229 C 0.0 **** -0.24
2912 H 32.35644715880492 52.626512911610064 69.68196074614721 H 0.0 **** 0.06
2913 H 31.998499646486977 54.26999855467051 70.26410679761642 H 0.0 **** 0.06
2914 H 33.68621220048433 53.720204818768764 70.13166550515501 H 0.0 **** 0.06
2915 H 32.62623617586548 53.042841095537085 71.39073051264796 H 0.0 **** 0.06
2916 C 2.633199227906255 38.22367408826511 103.65374001083882 C 0.0 **** -0.24
2917 H 2.4980089121128053 38.183163909346604 102.57224745074865 H 0.0 **** 0.06
2918 H 3.5822057380684296 38.70927580160395 103.88283439309532 H 0.0 **** 0.06
2919 H 2.6341636144531524 37.212037483417305 104.0580492329301 H 0.0 **** 0.06
2920 H 1.8164950518930976 38.79226909182165 104.0988125860427 H 0.0 **** 0.06
2921 C 106.45541889484963 19.5696435847388 74.201508032014 C 0.0 **** -0.24
2922 H 106.57854122996781 19.88014401908076 73.16320266721527 H 0.0 **** 0.06
2923 H 106.48852205785047 18.482277905109 74.26065667190318 H 0.0 **** 0.06
2924 H 105.49584105141435 19.926616252020224 74.5750685047023 H 0.0 **** 0.06
2925 H 107.25966866006806 19.99170001683595 74.80455221141258 H 0.0 **** 0.06
2926 C 116.7721262036552 66.72278997193288 2.9296768017644865 C 0.0 **** -0.24
2927 H 116.06259049545753 66.66669958710526 3.75533504112758 H 0.0 **** 0.06
2928 H 117.78364042422663 66.5853730288091 3.3110507635332738 H 0.0 **** 0.06
2929 H 116.69367157022327 67.69779235806806 2.4489848297731953 H 0.0 **** 0.06
2930 H 116.54752128163233 65.94036183252521 2.205057327713405 H 0.0 **** 0.06
2931 C 53.70109993602182 86.89279874606436 104.31567225368286 C 0.0 **** -0.24
2932 H 53.561638942944114 86.54930247671803 105.34056614994321 H 0.0 **** 0.06
2933 H 52.90177497532849 87.58499641049363 104.05229129333821 H 0.0 **** 0.06
2934 H 53.6781428265152 86.03697181010048 103.64012220507544 H 0.0 **** 0.06
2935 H 54.6627499148554 87.39747757065606 104.22963679891183 H 0.0 **** 0.06
2936 C 47.00493083400073 52.425310405160914 19.905079331249127 C 0.0 **** -0.24
2937 H 47.323736966127825 53.16437290121047 20.64072048012453 H 0.0 **** 0.06
2938 H 45.93849031383645 52.23066773677992 20.02473508569878 H 0.0 **** 0.06
2939 H 47.56280490958632 51.50118878801198 20.05396277573601 H 0.0 **** 0.06
2940 H 47.19478824453314 52.80718591566267 18.902024087980422 H 0.0 **** 0.06
2941 C 93.2792408615521 100.67974958181966 102.16072198012483 C 0.0 **** -0.24
2942 H 94.2943963329871 101.06981618423796 102.23472189625798 H 0.0 **** 0.06
2943 H 93.2454372110029 99.67380545701803 102.57830342301986 H 0.0 **** 0.06
2944 H 92.97596446330749 100.65050225870445 101.11407036577239 H 0.0 **** 0.06
2945 H 92.600962283471 101.32754500867097 102.71798937581906 H 0.0 **** 0.06
2946 C 98.75794795219304 38.25668432767716 36.65752120735334 C 0.0 **** -0.24
2947 H 98.50042094947048 38.72390843215669 37.60739908217886 H 0.0 **** 0.06
2948 H 98.00315997828574 37.51234556354177 36.402161583075326 H 0.0 **** 0.06
2949 H 99.7312034471721 37.77287299625536 36.74400788813702 H 0.0 **** 0.06
2950 H 98.7981388896086 39.01662152762577 35.87737783021706 H 0.0 **** 0.06
2951 C 43.0535536704096 3.7769380658147043 67.35642933708974 C 0.0 **** -0.24
2952 H 43.762271158164396 3.1029117797508547 67.83843421815894 H 0.0 **** 0.06
2953 H 43.59633427180998 4.59475765170987 66.8815620273567 H 0.0 **** 0.06
2954 H 42.36956105517555 4.179503896459892 68.10370869378355 H 0.0 **** 0.06
2955 H 42.487490937084544 3.2296299917848046 66.60214724740447 H 0.0 **** 0.06
2956 C 56.699313961657566 106.51978088681187 110.9252915276839 C 0.0 **** -0.24
2957 H 57.62401302156027 106.00422290278092 111.18605047289725 H 0.0 **** 0.06
2958 H 56.44433520075691 107.22790451702886 111.71346492215342 H 0.0 **** 0.06
2959 H 55.89626357803559 105.79116123015987 110.81665904731655 H 0.0 **** 0.06
2960 H 56.83460585327228 107.05383568063831 109.98459807643529 H 0.0 **** 0.06
2961 C 30.224475783964444 44.99958826724526 70.05028052588733 C 0.0 **** -0.24
2962 H 30.64981383662623 44.969679546860846 69.04676987729042 H 0.0 **** 0.06
2963 H 30.999005040668337 44.76415860134483 70.77986454684356 H 0.0 **** 0.06
2964 H 29.419234827332048 44.267524669946454 70.1248832436361 H 0.0 **** 0.06
2965 H 29.829498410226634 45.995854172446 70.24771065570948 H 0.0 **** 0.06
2966 C 36.7796899251918 51.26425443921596 62.86334478597598 C 0.0 **** -0.24
2967 H 37.02086406794217 51.53915649854241 61.83698841330727 H 0.0 **** 0.06
2968 H 36.36613421389143 52.12835133469878 63.38403263812927 H 0.0 **** 0.06
2969 H 37.68395841606963 50.93096494312317 63.37187318772294 H 0.0 **** 0.06
2970 H 36.04607377651388 50.457185445724406 62.86008274281721 H 0.0 **** 0.06
2971 C 26.099510535655725 117.87486000151127 25.45904337588769 C 0.0 **** -0.24
2972 H 25.125232124651177 117.498790270189 25.771247964577185 H 0.0 **** 0.06
2973 H 26.712443969003118 118.06745998932266 26.340281989459697 H 0.0 **** 0.06
2974 H 25.96952223662737 118.7999487314861 24.89730548255517 H 0.0 **** 0.06
2975 H 26.59104541383232 117.13312080766369 24.829776357009905 H 0.0 **** 0.06
2976 C 60.66152536477682 25.500024295573752 73.67470948486064 C 0.0 **** -0.24
2977 H 60.34980845504248 25.590559119343737 74.7148688648802 H 0.0 **** 0.06
2978 H 60.41187679346734 26.416255199435568 73.13925723219083 H 0.0 **** 0.06
2979 H 60.14614589827147 24.657434292363547 73.21284185484055 H 0.0 **** 0.06
2980 H 61.73805394418912 25.334473682265894 73.63212095066876 H 0.0 **** 0.06
2981 C 77.13195141921128 55.68378016764822 34.78975875568966 C 0.0 **** -0.24
2982 H 77.77438637328882 56.14000851880013 34.03594468765215 H 0.0 **** 0.06
2983 H 76.91408186905468 54.6536361364312 34.50602866282492 H 0.0 **** 0.06
2984 H 76.20087935826925 56.24636925364493 34.86068072791619 H 0.0 **** 0.06
2985 H 77.63961450079702 55.69607506917751 35.754730079234776 H 0.0 **** 0.06
2986 C 75.22755478770694 2.0304195138507595 98.66605329632773 C 0.0 **** -0.24
2987 H 75.52263000030285 3.0633923111999977 98.84674172679627 H 0.0 **** 0.06
2988 H 74.42968172177359 2.0046074787036936 97.92332997923734 H 0.0 **** 0.06
2989 H 74.87230473756182 1.5867386656899498 99.5970459792336 H 0.0 **** 0.06
2990 H 76.0845943629912 1.4657385446434752 98.29965309026863 H 0.0 **** 0.06
2991 C 30.4990062911333 73.30248024086089 26.705503214183246 C 0.0 **** -0.24
2992 H 31.49564699579662 73.51967118157904 26.319779171173593 H 0.0 **** 0.06
2993 H 30.464227245791676 73.53322043722801 27.770092304550673 H 0.0 **** 0.06
2994 H 30.27393620717521 72.24696479244099 26.554410080092538 H 0.0 **** 0.06
2995 H 29.7650945748789 73.91076643785865 26.177268380782657 H 0.0 **** 0.06
2996 C 19.41496622981846 14.062604593424112 80.97665103372816 C 0.0 **** -0.24
2997 H 18.7309345041258 13.218353055629649 81.06604085695244 H 0.0 **** 0.06
2998 H 19.231591209332834 14.765384687560669 81.79024146484517 H 0.0 **** 0.06
2999 H 19.252709202001526 14.561094368698917 80.02138189545798 H 0.0 **** 0.06
3000 H 20.44306246167926 13.703470300255617 81.03069094705523 H 0.0 **** 0.06
3001 C 62.39433554967572 15.562706236299135 67.33069045648662 C 0.0 **** -0.24
3002 H 63.20250542212954 14.974127626955493 66.89808305281232 H 0.0 **** 0.06
3003 H 62.71934862219083 16.597140243771364 67.44602652217705 H 0.0 **** 0.06
3004 H 62.12855925555676 15.154228411280002 68.30548447291267 H 0.0 **** 0.06
3005 H 61.52556654234821 15.525639806210108 66.67295031088611 H 0.0 **** 0.06
3006 C 55.80038450645373 62.3214692639925 92.03589516608201 C 0.0 **** -0.24
3007 H 56.283107154507015 62.83977624808648 91.20660850918776 H 0.0 **** 0.06
3008 H 56.55730465663397 61.8259091729885 92.64343827008707 H 0.0 **** 0.06
3009 H 55.10521260771717 61.57922540741751 91.64415337433388 H 0.0 **** 0.06
3010 H 55.25654955958529 63.04216321739014 92.64689792177464 H 0.0 **** 0.06
3011 C 78.45675104745374 100.25775770351049 118.30299985361853 C 0.0 **** -0.24
3012 H 77.58776387516548 100.84375450046593 118.00243428247397 H 0.0 **** 0.06
3013 H 78.44076632285214 100.11288148905629 119.38349185993832 H 0.0 **** 0.06
3014 H 79.36669474815457 100.7871381191552 118.01981365018551 H 0.0 **** 0.06
3015 H 78.43081568528822 99.28835693971268 117.80489533674874 H 0.0 **** 0.06
3016 C 71.73072181642166 73.44265712035624 54.65889239270738 C 0.0 **** -0.24
3017 H 71.23737437393152 72.6906957142873 55.2750416732867 H 0.0 **** 0.06
3018 H 71.13391220987677 74.35442821550646 54.64954877868471 H 0.0 **** 0.06
3019 H 71.83667743489812 73.06542532210804 53.64182398886289 H 0.0 **** 0.06
3020 H 72.7169975916512 73.6573424161453 55.07064098548532 H 0.0 **** 0.06
3021 C 15.352563998354327 46.381006862187405 80.71479841342699 C 0.0 **** -0.24
3022 H 14.266196579867568 46.29060778391664 80.73609277682985 H 0.0 **** 0.06
3023 H 15.703416206004817 46.765844625085265 81.67327861564183 H 0.0 **** 0.06
3024 H 15.645069718443438 47.06527954939514 79.91848826622379 H 0.0 **** 0.06
3025 H 15.794513719169828 45.401306149265395 80.53271179258076 H 0.0 **** 0.06
3026 C 12.372141809291733 57.94950813075292 76.03065489293596 C 0.0 **** -0.24
3027 H 11.68629371748662 58.77720369849149 75.84973773796096 H 0.0 **** 0.06
3028 H 11.801158216991595 57.041141183477066 76.22457713009379 H 0.0 **** 0.06
3029 H 12.997769822414014 58.17836908056793 76.89271565401754 H 0.0 **** 0.06
3030 H 13.001660731496685 57.802586574729105 75.15266423811048 H 0.0 **** 0.06
3031 C 94.06238967650296 53.2427549391991 110.64477539181772 C 0.0 **** -0.24
3032 H 94.14095784921443 53.644981913606614 111.6549140389364 H 0.0 **** 0.06
3033 H 94.26914953005229 54.03196648171598 109.92274076301844 H 0.0 **** 0.06
3034 H 93.05410123408328 52.85850785141474 110.48498721196711 H 0.0 **** 0.06
3035 H 94.78305050000023 52.43547754011213 110.51838439354567 H 0.0 **** 0.06
3036 C 76.21441565716958 46.98893074574539 50.778159558900995 C 0.0 **** -0.24
3037 H 76.15742327778972 46.021429202088285 50.27908018882857 H 0.0 **** 0.06
3038 H 75.79477455674302 47.7576193285382 50.127976605128595 H 0.0 **** 0.06
3039 H 77.25619870680853 47.224681294295195 50.99531232134018 H 0.0 **** 0.06
3040 H 75.64872379373273 46.950434145940875 51.70876058073134 H 0.0 **** 0.06
3041 C 68.11848899788714 74.42412663580535 84.37712768222332 C 0.0 **** -0.24
3042 H 68.77285357250875 75.2025367294176 84.76886773380178 H 0.0 **** 0.06
3043 H 68.0672699843289 73.59975541987265 85.08825373928721 H 0.0 **** 0.06
3044 H 68.51237624717325 74.06193417820046 83.42721765472109 H 0.0 **** 0.06
3045 H 67.11990471424 74.83394597381829 84.22326687352762 H 0.0 **** 0.06
3046 C 72.79671718457811 70.09662430456524 4.2587067447714535 C 0.0 **** -0.24
3047 H 72.93346267369094 70.63160818298118 3.31903420717423 H 0.0 **** 0.06
3048 H 72.81835802042991 69.02311003318704 4.071852962918923 H 0.0 **** 0.06
3049 H 71.83649730050271 70.37103323757282 4.696163160168705 H 0.0 **** 0.06
3050 H 73.59857045076606 70.36286941325307 4.94847666345329 H 0.0 **** 0.06
3051 C 4.444555639720404 53.0433114874299 35.920843657395665 C 0.0 **** -0.24
3052 H 3.8098136304933803 52.551983178575846 35.183011915971576 H 0.0 **** 0.06
3053 H 5.4449643746153225 52.61325890672328 35.88299320047247 H 0.0 **** 0.06
3054 H 4.022983022849134 52.898419583615166 36.916167478737464 H 0.0 **** 0.06
3055 H 4.4974431672226896 54.10951496002695 35.700261151421785 H 0.0 **** 0.06
3056 C 87.29201443775662 23.598510608440783 62.81202703167774 C 0.0 **** -0.24
3057 H 87.47541896990853 22.754050412160368 62.14749385833719 H 0.0 **** 0.06
3058 H 86.22016444510615 23.789748597081804 62.86937884550476 H 0.0 **** 0.06
3059 H 87.79830616047673 24.482009388404627 62.423653313404266 H 0.0 **** 0.06
3060 H 87.67420320770904 23.368039809949153 63.80618169307676 H 0.0 **** 0.06
3061 C 115.37532225123012 49.0792796790995 46.34051029221763 C 0.0 **** -0.24
3062 H 114.3801236781596 49.476830629051875 46.537752703408046 H 0.0 **** 0.06
3063 H 115.70759004305414 49.40545214947579 45.35498241307829 H 0.0 **** 0.06
3064 H 115.34368714586398 47.98959374114136 46.371468658440335 H 0.0 **** 0.06
3065 H 116.06879202421926 49.44446838187005 47.09739033398682 H 0.0 **** 0.06
3066 C 43.146838953551594 81.24319607385058 108.43056721013849 C 0.0 **** -0.24
3067 H 43.156710579514424 80.42341075501722 107.71169434284471 H 0.0 **** 0.06
3068 H 44.17057962062495 81.5507153721527 108.64383346759678 H 0.0 **** 0.06
3069 H 42.666576903469775 80.91252358470828 109.35107717338246 H 0.0 **** 0.06
3070 H 42.59370285484914 82.08468295354893 108.01397649030653 H 0.0 **** 0.06
3071 C 83.71123092670211 8.189049097787297 27.876256687035436 C 0.0 **** -0.24
3072 H 84.66285693579786 8.101441787967737 27.35198627139775 H 0.0 **** 0.06
3073 H 83.31418558513454 7.193489963911574 28.075927939532164 H 0.0 **** 0.06
3074 H 83.00658295065355 8.745346457192248 27.258934253238237 H 0.0 **** 0.06
3075 H 83.86345071934392 8.715317088904868 28.818254388480284 H 0.0 **** 0.06
3076 C 112.3819414656579 45.132239923753204 14.045126118947223 C 0.0 **** -0.24
3077 H 111.78439896494133 45.08078037954874 13.134507377145127 H 0.0 **** 0.06
3078 H 112.12848301670319 46.03842098594629 14.595825038412471 H 0.0 **** 0.06
3079 H 113.44023143262945 45.148987983265755 13.785050350113949 H 0.0 **** 0.06
3080 H 112.174062658716 44.2599976512974 14.66488687135444 H 0.0 **** 0.06
3081 C 74.40723160692076 2.9516158136175363 40.01946644837517 C 0.0 **** -0.24
3082 H 75.24480773343285 2.562524710480261 39.440644449252005 H 0.0 **** 0.06
3083 H 73.66710087802994 2.163935980841245 40.1599319113098 H 0.0 **** 0.06
3084 H 73.95375723845649 3.7867897375964503 39.48579138343396 H 0.0 **** 0.06
3085 H 74.7652334130052 3.292089997372841 40.99057743593815 H 0.0 **** 0.06
3086 C 29.00983619034406 75.1096838720461 100.35184975706642 C 0.0 **** -0.24
3087 H 28.528697977422098 74.48004084636179 101.10114364108807 H 0.0 **** 0.06
3088 H 29.911833155419657 74.61759041535569 99.98899987926947 H 0.0 **** 0.06
3089 H 29.272326328519398 76.0688277591014 100.79852247443532 H 0.0 **** 0.06
3090 H 28.324092185186657 75.27226681101061 99.52053964874418 H 0.0 **** 0.06
3091 C 117.32366585221538 118.50862092073375 15.096681080640806 C 0.0 **** -0.24
3092 H 116.5665897917167 117.99549795182115 14.50364969096552 H 0.0 **** 0.06
3093 H 118.31573290242235 118.21142028725635 14.753278316998099 H 0.0 **** 0.06
3094 H 117.20640959061933 118.24012832125061 16.14667073527569 H 0.0 **** 0.06
3095 H 117.20687188529831 119.58631523593428 14.981161733602445 H 0.0 **** 0.06
3096 C 10.967499614706014 72.52184106892133 81.77325703454801 C 0.0 **** -0.24
3097 H 10.956866779727278 73.08885213949492 80.84213943364782 H 0.0 **** 0.06
3098 H 9.962318340720259 72.15895452373087 81.98858364885226 H 0.0 **** 0.06
3099 H 11.304046352005031 73.16573029757276 82.58683961912033 H 0.0 **** 0.06
3100 H 11.646660470383864 71.6758754919666 81.6745744159301 H 0.0 **** 0.06
3101 C 106.05786021068934 75.18750413101125 31.33451646953168 C 0.0 **** -0.24
3102 H 106.55509454022945 76.13674703267017 31.533090090423443 H 0.0 **** 0.06
3103 H 105.98676488120134 74.6155410690485 32.260136980255965 H 0.0 **** 0.06
3104 H 106.63198399288734 74.62230527578063 30.60112459787166 H 0.0 **** 0.06
3105 H 105.05716711522706 75.376199177975 30.94599739969273 H 0.0 **** 0.06
3106 C 24.340863170148793 21.98725319061498 79.8138472647081 C 0.0 **** -0.24
3107 H 24.262196785538407 21.34542440659618 80.69114536828695 H 0.0 **** 0.06
3108 H 24.50160404102479 23.018378097716948 80.1319596559365 H 0.0 **** 0.06
3109 H 23.419826215117638 21.924063622506708 79.23465683373982 H 0.0 **** 0.06
3110 H 25.18005063486163 21.661713147568264 79.19924850180803 H 0.0 **** 0.06
3111 C 28.90980249931308 111.34550049971301 41.102781599582336 C 0.0 **** -0.24
3112 H 29.294639182738514 110.58296836993907 41.77861437630511 H 0.0 **** 0.06
3113 H 28.068026002868777 111.85573421577578 41.573084238146095 H 0.0 **** 0.06
3114 H 28.579401725012936 110.87739270933923 40.17557127357377 H 0.0 **** 0.06
3115 H 29.696260355939742 112.06808490245419 40.88454686419081 H 0.0 **** 0.06
3116 C 80.39892175376548 3.3197254465973174 58.177999274091086 C 0.0 **** -0.24
3117 H 80.19306776384937 4.006797797628224 58.99957481308761 H 0.0 **** 0.06
3118 H 81.29097119584625 2.737221555803785 58.40617798099807 H 0.0 **** 0.06
3119 H 80.55952932510877 3.8883219018185287 57.26150491821834 H 0.0 **** 0.06
3120 H 79.54967729652515 2.648952360077942 58.045304413576766 H 0.0 **** 0.06
3121 C 45.85999677483818 83.13616411159416 92.7466417576313 C 0.0 **** -0.24
3122 H 46.21485835579159 82.90691868609252 91.74180576765474 H 0.0 **** 0.06
3123 H 46.525881813652575 83.86481965167746 93.20967180574871 H 0.0 **** 0.06
3124 H 45.847911521476476 82.22376695006591 93.34360824505202 H 0.0 **** 0.06
3125 H 44.85211190252147 83.54684414799743 92.69175527525874 H 0.0 **** 0.06
3126 C 19.31875476983589 116.20878655828284 93.06429005635852 C 0.0 **** -0.24
3127 H 18.492311695552132 115.53601043566493 93.29338327762056 H 0.0 **** 0.06
3128 H 20.162044838222982 115.98408184256223 93.7177449144902 H 0.0 **** 0.06
3129 H 19.00179395230691 117.24004087285978 93.22153184960081 H 0.0 **** 0.06
3130 H 19.61845474743643 116.07509873858542 92.0254065242481 H 0.0 **** 0.06
3131 C 104.54914467315461 107.0815491693698 54.353464786005745 C 0.0 **** -0.24
3132 H 105.48923932301912 107.39714922899478 53.90057048945967 H 0.0 **** 0.06
3133 H 103.85928902002996 106.7609072193882 53.5714918904156 H 0.0 **** 0.06
3134 H 104.11317734352122 107.91507880980151 54.9036541740735 H 0.0 **** 0.06
3135 H 104.73553564070835 106.25251413356801 55.03584874069134 H 0.0 **** 0.06
3136 C 5.473767328061726 46.402103146324194 65.93142077308451 C 0.0 **** -0.24
3137 H 5.674692162451379 47.232202422278235 66.60771870801571 H 0.0 **** 0.06
3138 H 6.272466920464794 45.66389824280181 66.01573661073027 H 0.0 **** 0.06
3139 H 5.42750446609071 46.77109123948082 64.90683007308067 H 0.0 **** 0.06
3140 H 4.5223424518679565 45.93972197842029 66.19545669099236 H 0.0 **** 0.06
3141 C 95.26651682188071 12.07027295627995 72.56679968435981 C 0.0 **** -0.24
3142 H 95.74765671877498 12.443478015457913 71.66273002241746 H 0.0 **** 0.06
3143 H 94.34223998283562 12.621271374632954 72.74007295339595 H 0.0 **** 0.06
3144 H 95.93557769514791 12.20696841817957 73.41722696097656 H 0.0 **** 0.06
3145 H 95.04251133598746 11.010519663842842 72.44725455426908 H 0.0 **** 0.06
3146 C 0.06018928086689357 10.47279316260476 71.19454099501507 C 0.0 **** -0.24
3147 H -0.8291790087264417 11.092398052638615 71.31266989984462 H 0.0 **** 0.06
3148 H 0.9155220984036418 11.105857248786378 70.95778326702211 H 0.0 **** 0.06
3149 H -0.09918056247616391 9.758294245701677 70.38791652903186 H 0.0 **** 0.06
3150 H 0.25322040444964955 9.934227984048633 72.12335863859516 H 0.0 **** 0.06
3151 C 95.39408510096297 38.150761385886796 92.51306268706688 C 0.0 **** -0.24
3152 H 95.20414207960872 37.09608981544156 92.70936864384933 H 0.0 **** 0.06
3153 H 94.44545881971757 38.67213382577117 92.38061422662238 H 0.0 **** 0.06
3154 H 95.9931110294815 38.25071914269887 91.60796106352134 H 0.0 **** 0.06
3155 H 95.93299277464396 38.58452069730498 93.35549900982139 H 0.0 **** 0.06
3156 C 50.47446602155507 109.89645237970831 75.84845581593905 C 0.0 **** -0.24
3157 H 51.52174575133427 109.96951557412808 75.55265589044873 H 0.0 **** 0.06
3158 H 50.34513684860822 110.33367676168467 76.8390997692444 H 0.0 **** 0.06
3159 H 50.17687973414759 108.8478228637087 75.8723126157119 H 0.0 **** 0.06
3160 H 49.85686388604891 110.43362548198633 75.12968454300619 H 0.0 **** 0.06
3161 C 5.767413465662543 46.69017093746352 54.45907034523559 C 0.0 **** -0.24
3162 H 6.802649751384166 47.03139221666626 54.48181838744978 H 0.0 **** 0.06
3163 H 5.183571833531971 47.345151982515475 53.813054636423 H 0.0 **** 0.06
3164 H 5.355111844075822 46.71452311304412 55.46843003788742 H 0.0 **** 0.06
3165 H 5.729621151607915 45.670589936500136 54.07550041350772 H 0.0 **** 0.06
3166 C 97.74765275060813 105.81887391007183 100.66348577666074 C 0.0 **** -0.24
3167 H 97.40398325932327 105.48355017449188 99.68491955780385 H 0.0 **** 0.06
3168 H 98.66063067079915 105.28599957586209 100.93079623168984 H 0.0 **** 0.06
3169 H 96.97708399761444 105.6151985691829 101.40747351928772 H 0.0 **** 0.06
3170 H 97.94720145722809 106.88962582640204 100.63165541244803 H 0.0 **** 0.06
3171 C 63.619917794885744 2.4593221473072617 114.42267004348004 C 0.0 **** -0.24
3172 H 64.53265448945052 2.4790858300191587 113.8267331988867 H 0.0 **** 0.06
3173 H 62.768265080853276 2.713405372856755 113.7922377375832 H 0.0 **** 0.06
3174 H 63.701709582633406 3.1830505920805763 115.2341771995997 H 0.0 **** 0.06
3175 H 63.47977851762791 1.4615934177487873 114.83823100923398 H 0.0 **** 0.06
3176 C 54.855129238141444 39.754194099864606 67.26550975495746 C 0.0 **** -0.24
3177 H 54.21156944865521 38.88267884117653 67.38273382338366 H 0.0 **** 0.06
3178 H 54.2512979216159 40.617515564044396 66.98774312514888 H 0.0 **** 0.06
3179 H 55.592487120256635 39.55906836259359 66.48634936453101 H 0.0 **** 0.06
3180 H 55.36724635133595 39.95554357531569 68.20739835191486 H 0.0 **** 0.06
3181 C 18.524714226443166 72.17682257057521 41.121628667001374 C 0.0 **** -0.24
3182 H 17.581911444636546 71.97923539931259 41.63153628914168 H 0.0 **** 0.06
3183 H 18.46313735755922 73.13396994071263 40.60251900024582 H 0.0 **** 0.06
3184 H 18.720395687634664 71.38411256438911 40.40004212470268 H 0.0 **** 0.06
3185 H 19.332621034771762 72.20953410061725 41.852843502008085 H 0.0 **** 0.06
3186 C 55.47573049578204 91.98224607350431 51.8613113996671 C 0.0 **** -0.24
3187 H 54.99194708389431 91.78697164658962 50.90373887625577 H 0.0 **** 0.06
3188 H 54.87492651094973 92.68820925657798 52.434441497533015 H 0.0 **** 0.06
3189 H 56.46542405270335 92.40432633568668 51.687180767872064 H 0.0 **** 0.06
3190 H 55.57115378743557 91.04954859315 52.4161810284792 H 0.0 **** 0.06
3191 C 31.625594297818566 45.52703218557173 11.75278824862562 C 0.0 **** -0.24
3192 H 31.74431774293282 44.65412883193531 11.11052734020376 H 0.0 **** 0.06
3193 H 30.591512086885345 45.86922517958388 11.711891981804513 H 0.0 **** 0.06
3194 H 32.286284432614934 46.32334443691886 11.408448333264431 H 0.0 **** 0.06
3195 H 31.881132438917845 45.26124091934099 12.778233905020613 H 0.0 **** 0.06
3196 C 62.42879306240613 75.10603772087708 44.85591519322739 C 0.0 **** -0.24
3197 H 62.99575388130688 74.5490596476252 45.60197178274049 H 0.0 **** 0.06
3198 H 61.77762161552815 75.82414349265682 45.355089974042315 H 0.0 **** 0.06
3199 H 61.824179971916465 74.41484573959161 44.268249252945026 H 0.0 **** 0.06
3200 H 63.11636195655379 75.63627226998199 44.19772004704309 H 0.0 **** 0.06
3201 C 110.31454817071788 49.25697234244103 29.637617505815243 C 0.0 **** -0.24
3202 H 110.77348516682413 49.15872982451583 28.653751244493606 H 0.0 **** 0.06
3203 H 110.23359443404432 50.31275789668757 29.897413506488775 H 0.0 **** 0.06
3204 H 110.93011704263604 48.74564458984361 30.378347901299016 H 0.0 **** 0.06
3205 H 109.32071073023198 48.809374385248816 29.62104061696337 H 0.0 **** 0.06
3206 C 35.88510543923729 89.8625547424453 105.91376928468767 C 0.0 **** -0.24
3207 H 36.78848176900746 89.32772051567656 106.20807382750044 H 0.0 **** 0.06
3208 H 35.200052472252395 89.90947028202129 106.76129806497022 H 0.0 **** 0.06
3209 H 35.405889297318765 89.33917746467813 105.08722490939797 H 0.0 **** 0.06
3210 H 36.14811988140926 90.87332413954204 105.60134774572913 H 0.0 **** 0.06
3211 C 51.30703149406287 14.906326131271882 103.0165506294882 C 0.0 **** -0.24
3212 H 50.219312079192946 14.951639874865414 103.07731043385024 H 0.0 **** 0.06
3213 H 51.60748840088871 13.94830300383099 102.59163542045371 H 0.0 **** 0.06
3214 H 51.7297651952201 15.009405260244677 104.01630135988799 H 0.0 **** 0.06
3215 H 51.670025871644924 15.715156142207064 102.38268893800583 H 0.0 **** 0.06
3216 C 10.995890281701094 24.59189640324837 109.5923532526248 C 0.0 **** -0.24
3217 H 11.21276467279344 24.04795726657437 108.67232860277392 H 0.0 **** 0.06
3218 H 11.413452497194612 25.596767178274888 109.52677803081664 H 0.0 **** 0.06
3219 H 11.439760531103303 24.067803256462753 110.43789808218969 H 0.0 **** 0.06
3220 H 9.9161284213057 24.65548161461055 109.72981909309914 H 0.0 **** 0.06
3221 C 14.43081231724625 61.28665278834358 23.822555713301426 C 0.0 **** -0.24
3222 H 15.177792321819538 60.98586143252671 23.087593787233025 H 0.0 **** 0.06
3223 H 14.438883379669619 60.586031801733675 24.657186546404773 H 0.0 **** 0.06
3224 H 13.444432115312509 61.28878702369992 23.357538320862936 H 0.0 **** 0.06
3225 H 14.663492656085907 62.28795840344586 24.185888251092017 H 0.0 **** 0.06
3226 C 60.07463778688776 59.41526090197477 100.73506385613041 C 0.0 **** -0.24
3227 H 60.03433549009526 58.33906611004489 100.56687329689066 H 0.0 **** 0.06
3228 H 60.70167561567942 59.87877846745638 99.97298142128159 H 0.0 **** 0.06
3229 H 60.49366388271736 59.612950346746 101.72140991653521 H 0.0 **** 0.06
3230 H 59.06717728252087 59.8294881348423 100.67825893036866 H 0.0 **** 0.06
3231 C 91.38443386912837 110.68823770156256 85.84994127450625 C 0.0 **** -0.24
3232 H 91.95329489042575 111.49113433008674 85.38049080593555 H 0.0 **** 0.06
3233 H 90.31915451332742 110.86252500716262 85.69850019659535 H 0.0 **** 0.06
3234 H 91.60139778855518 110.66547782606482 86.9181342559967 H 0.0 **** 0.06
3235 H 91.6649079175649 109.73484305877048 85.4016907206817 H 0.0 **** 0.06
3236 C 40.917665168943806 113.87581362894257 26.645790100948886 C 0.0 **** -0.24
3237 H 41.60644410455748 114.18510624708377 27.431571998176537 H 0.0 **** 0.06
3238 H 39.94934970827724 114.34988347048115 26.80476021330105 H 0.0 **** 0.06
3239 H 40.80031271368676 112.79167666667233 26.67213622020364 H 0.0 **** 0.06
3240 H 41.31517567511355 114.17489627722154 25.675558902807154 H 0.0 **** 0.06
3241 C 72.04202825184609 91.31208202599774 68.6420561674737 C 0.0 **** -0.24
3242 H 73.02434486976256 91.66009737295116 68.32155033349503 H 0.0 **** 0.06
3243 H 71.83146282927191 90.34664347161771 68.18085639620207 H 0.0 **** 0.06
3244 H 71.2840967518598 92.0329715269742 68.33806826137302 H 0.0 **** 0.06
3245 H 72.02959773532137 91.20674005687394 69.72700645970099 H 0.0 **** 0.06
3246 C 3.3519476966554578 16.43087985630484 79.11497495384893 C 0.0 **** -0.24
3247 H 3.5078038911730403 15.515224544089278 78.54416080637793 H 0.0 **** 0.06
3248 H 2.3253564495562813 16.463558679490745 79.47707018459977 H 0.0 **** 0.06
3249 H 3.539736917167147 17.292961055884916 78.47407102355461 H 0.0 **** 0.06
3250 H 4.038188146667494 16.451198470943837 79.96180243838495 H 0.0 **** 0.06
3251 C 58.118757798785985 0.7869055280437038 113.03625685226692 C 0.0 **** -0.24
3252 H 58.28200858803984 0.7240391104166974 114.11223853261728 H 0.0 **** 0.06
3253 H 59.011562299039234 1.1897901659119583 112.55711833986479 H 0.0 **** 0.06
3254 H 57.27110437772131 1.4427686202601109 112.83595485098405 H 0.0 **** 0.06
3255 H 57.910870304773674 -0.20731215442783935 112.6414385046765 H 0.0 **** 0.06
3256 C 45.592332547698476 76.80325218818686 1.0956116854171398 C 0.0 **** -0.24
3257 H 45.692314393833044 75.78573346100768 1.4723911868810546 H 0.0 **** 0.06
3258 H 44.703288664022494 77.2634898067414 1.5267750855211801 H 0.0 **** 0.06
3259 H 45.49929530059708 76.78040917536799 0.009115975672330023 H 0.0 **** 0.06
3260 H 46.47325537241487 77.38209058934035 1.3724430939520431 H 0.0 **** 0.06
3261 C 90.57417989543302 23.122031682465774 13.946974986442854 C 0.0 **** -0.24
3262 H 91.3959494174654 23.062738689508393 13.233472532771579 H 0.0 **** 0.06
3263 H 90.02016566450425 24.047730635001926 13.786780314257271 H 0.0 **** 0.06
3264 H 90.97286993787941 23.108387659669944 14.96139682430675 H 0.0 **** 0.06
3265 H 89.90879450606411 22.2703739238286 13.807061128694937 H 0.0 **** 0.06
3266 C 7.3486821831646125 33.53253260547507 17.52331517863313 C 0.0 **** -0.24
3267 H 7.744871464911569 34.11121706724225 16.688961590978586 H 0.0 **** 0.06
3268 H 6.595672666884184 34.12142839023835 18.047603293381986 H 0.0 **** 0.06
3269 H 8.159062108377327 33.28485135180506 18.20978514366489 H 0.0 **** 0.06
3270 H 6.896866699264535 32.61491898730844 17.14776820166366 H 0.0 **** 0.06
3271 C 104.25692722020398 15.812194202979953 18.222915764317463 C 0.0 **** -0.24
3272 H 104.31284719931645 16.40689481504492 17.311238903651883 H 0.0 **** 0.06
3273 H 103.23259914095638 15.81259345472688 18.59518499495647 H 0.0 **** 0.06
3274 H 104.91858085350418 16.239894447166165 18.97659446076989 H 0.0 **** 0.06
3275 H 104.56529372495248 14.788676653160678 18.00770297328671 H 0.0 **** 0.06
3276 C 88.43558494379164 69.75552405496478 24.176640011867136 C 0.0 **** -0.24
3277 H 88.5759194259077 69.76752748357268 25.25757327944612 H 0.0 **** 0.06
3278 H 87.80851887318258 68.90817415805009 23.900464653724782 H 0.0 **** 0.06
3279 H 89.40566653286768 69.66665972456985 23.685865612781214 H 0.0 **** 0.06
3280 H 87.95388085645322 70.68192304640434 23.863365903094262 H 0.0 **** 0.06
3281 C 113.78963707014303 90.74125590750685 6.644448279416665 C 0.0 **** -0.24
3282 H 114.15977727201445 90.65032765004901 7.665469254648002 H 0.0 **** 0.06
3283 H 112.72680693721692 90.97994133384822 6.66301911633515 H 0.0 **** 0.06
3284 H 113.94286316061658 89.79949915946582 6.116881603489659 H 0.0 **** 0.06
3285 H 114.33263427785201 91.5360774289619 6.13150632946315 H 0.0 **** 0.06
3286 C 6.3934513381628335 96.31925208147368 82.47583447163771 C 0.0 **** -0.24
3287 H 5.454704306360952 96.19806084064552 81.9357555567413 H 0.0 **** 0.06
3288 H 6.188541202000351 96.68065203969564 83.48368986365426 H 0.0 **** 0.06
3289 H 7.022445886243361 97.0391825702012 81.95218523650419 H 0.0 **** 0.06
3290 H 6.907919493201803 95.36047093201392 82.53064985497633 H 0.0 **** 0.06
3291 C 68.87361659845669 44.21763736137774 16.065945216228002 C 0.0 **** -0.24
3292 H 69.5152692773782 43.37605556792971 16.331351752355836 H 0.0 **** 0.06
3293 H 67.90272021192123 44.09833721588063 16.548101128741838 H 0.0 **** 0.06
3294 H 68.74200003404144 44.24635920575804 14.984403403880592 H 0.0 **** 0.06
3295 H 69.3344602591863 45.14622798287178 16.401046812476014 H 0.0 **** 0.06
3296 C 31.39397104608139 70.4659126742122 16.45779977818586 C 0.0 **** -0.24
3297 H 31.008017802476786 70.72348320245982 17.443455403050194 H 0.0 **** 0.06
3298 H 31.156890834130536 69.42575238592548 16.2355767301124 H 0.0 **** 0.06
3299 H 32.47524652361915 70.60347399380873 16.442973929474675 H 0.0 **** 0.06
3300 H 30.93603508495744 71.11146684855817 15.708399331533826 H 0.0 **** 0.06
3301 C 96.05207338958496 4.687961962491315 81.94944522261892 C 0.0 **** -0.24
3302 H 96.41796246955371 5.127643018715645 82.87683525332841 H 0.0 **** 0.06
3303 H 96.18945832905479 5.396315646445345 81.13274945399814 H 0.0 **** 0.06
3304 H 94.99264342446045 4.451869366493128 82.05272661056563 H 0.0 **** 0.06
3305 H 96.6084150956807 3.774502262676208 81.73710138469164 H 0.0 **** 0.06
3306 C 30.305767726293375 69.44867294585566 59.928916952465215 C 0.0 **** -0.24
3307 H 31.063237374221444 70.17902119976824 60.214977754096424 H 0.0 **** 0.06
3308 H 30.346073056844993 69.28664039797471 58.85219811716871 H 0.0 **** 0.06
3309 H 29.319895240815292 69.8216950302764 60.20479642481126 H 0.0 **** 0.06
3310 H 30.495030662428057 68.50774770894606 60.44555880852627 H 0.0 **** 0.06
3311 C 106.56757374193722 26.127163431431157 69.65960309705571 C 0.0 **** -0.24
3312 H 107.05459888441482 25.569618741450157 68.85918693380523 H 0.0 **** 0.06
3313 H 105.49539318967743 25.92944998885563 69.63945654109142 H 0.0 **** 0.06
3314 H 106.74375478860671 27.193753057847225 69.51681152906755 H 0.0 **** 0.06
3315 H 106.97771203068248 25.816163372688898 70.61971144362698 H 0.0 **** 0.06
3316 C 40.029698418088 16.44804314308167 9.893459541194037 C 0.0 **** -0.24
3317 H 40.02540687807695 17.206233687937804 9.110965327215993 H 0.0 **** 0.06
3318 H 39.808072136095944 16.914838949662354 10.852677440067772 H 0.0 **** 0.06
3319 H 41.01102887595303 15.975753025359186 9.93629801320445 H 0.0 **** 0.06
3320 H 39.27273936597035 15.694664721985333 9.672433311225873 H 0.0 **** 0.06
3321 C 58.0741239668607 55.93922775677834 11.324046823727002 C 0.0 **** -0.24
3322 H 57.90676166320577 57.011536393019924 11.423392659620134 H 0.0 **** 0.06
3323 H 57.257318765414 55.397259039587226 11.801007785113086 H 0.0 **** 0.06
3324 H 59.016113439809686 55.67270009577348 11.803264314836326 H 0.0 **** 0.06
3325 H 58.11718349047541 55.67477333871304 10.266570383678328 H 0.0 **** 0.06
3326 C 57.31112718902318 33.1089718385243 61.39394424866017 C 0.0 **** -0.24
3327 H 58.350225132017044 33.04282223290018 61.07067455767979 H 0.0 **** 0.06
3328 H 56.65561840561429 32.8173532900166 60.5723448796003 H 0.0 **** 0.06
3329 H 57.08715781350759 34.13403211239972 61.69025955160608 H 0.0 **** 0.06
3330 H 57.15141149626015 32.44187460046341 62.241521849409445 H 0.0 **** 0.06
3331 C 6.3725478912089795 72.45186395415101 59.292601270913444 C 0.0 **** -0.24
3332 H 7.431282034599477 72.48201210752288 59.548922627856065 H 0.0 **** 0.06
3333 H 5.785962740522137 72.84662022368462 60.1220106404002 H 0.0 **** 0.06
3334 H 6.075916931697645 71.42151491974656 59.09540458381378 H 0.0 **** 0.06
3335 H 6.196991885559523 73.05742129619733 58.40265798815823 H 0.0 **** 0.06
3336 C 29.275623692013937 7.707086685094193 37.74637579130669 C 0.0 **** -0.24
3337 H 30.182814157454914 7.261831334992536 38.15500852270108 H 0.0 **** 0.06
3338 H 29.393214149154062 7.8486722827309485 36.672513364926914 H 0.0 **** 0.06
3339 H 29.09884854115211 8.671101177589353 38.22388830649399 H 0.0 **** 0.06
3340 H 28.429805956632435 7.046326929456679 37.93610314175808 H 0.0 **** 0.06
3341 C 114.8316805879195 56.228919035519596 106.07249941548702 C 0.0 **** -0.24
3342 H 113.89987779511334 55.88886898694551 106.52517162581421 H 0.0 **** 0.06
3343 H 115.53830548801702 56.500355937516815 106.85741844705299 H 0.0 **** 0.06
3344 H 114.63365147177154 57.09844840533532 105.44499740814356 H 0.0 **** 0.06
3345 H 115.25292483367821 55.42991511713171 105.46398854615572 H 0.0 **** 0.06
3346 C 51.64949332162615 91.77966668546048 105.16946374682726 C 0.0 **** -0.24
3347 H 52.38455160644088 91.45942662751673 105.90751670036445 H 0.0 **** 0.06
3348 H 52.11178729101891 92.48561279376787 104.47916238083428 H 0.0 **** 0.06
3349 H 50.81308585648486 92.26091796075303 105.67640983442362 H 0.0 **** 0.06
3350 H 51.28936280820477 90.91277978802447 104.61629321631432 H 0.0 **** 0.06
3351 C 2.4123560469160594 55.38022791675448 9.40303875827792 C 0.0 **** -0.24
3352 H 2.9677900429587734 55.60806588202618 10.312908263874295 H 0.0 **** 0.06
3353 H 3.0727985986908273 55.478567262325896 8.541289026905734 H 0.0 **** 0.06
3354 H 1.57785295089705 56.07389040616533 9.303356927251102 H 0.0 **** 0.06
3355 H 2.032355630617001 54.36025521349154 9.45491262820368 H 0.0 **** 0.06
3356 C 38.352163107966504 75.42083869979399 20.020143444378675 C 0.0 **** -0.24
3357 H 37.698060981297374 74.975359169856 19.271100106192193 H 0.0 **** 0.06
3358 H 37.83601653847586 76.24779545730439 20.50770862189819 H 0.0 **** 0.06
3359 H 39.25746111004233 75.78965452863099 19.53887747986738 H 0.0 **** 0.06
3360 H 38.61734013315396 74.66943473138144 20.764197082607154 H 0.0 **** 0.06
3361 C 2.693500718339209 20.137704868870117 4.288609563680069 C 0.0 **** -0.24
3362 H 2.010371380027692 19.30398450375634 4.451886161609167 H 0.0 **** 0.06
3363 H 3.5293019339111993 19.806579200777605 3.672642307117002 H 0.0 **** 0.06
3364 H 3.0667835470071054 20.494091005473194 5.247942840956739 H 0.0 **** 0.06
3365 H 2.164470981641074 20.94492260853201 3.781923631758332 H 0.0 **** 0.06
3366 C 46.49278741034445 53.814505639396 93.19076669114236 C 0.0 **** -0.24
3367 H 45.705091914981296 54.32400548847275 93.74562277057828 H 0.0 **** 0.06
3368 H 46.37602065257013 52.735915106508656 93.30227289431184 H 0.0 **** 0.06
3369 H 47.464471795089935 54.11731014771249 93.57918704994142 H 0.0 **** 0.06
3370 H 46.42395979944388 54.08072997129082 92.13533691197478 H 0.0 **** 0.06
3371 C 35.51567636868208 110.10780544755448 40.092262985576696 C 0.0 **** -0.24
3372 H 34.454951616781216 110.07387106030066 39.84430531194596 H 0.0 **** 0.06
3373 H 35.679870360921086 110.83713737157504 40.88577787074246 H 0.0 **** 0.06
3374 H 36.086730842078595 110.39644609170912 39.20998246298237 H 0.0 **** 0.06
3375 H 35.8421331450495 109.1239201082515 40.42999396509114 H 0.0 **** 0.06
3376 C 35.7619869819803 68.14538737626623 29.788448727783788 C 0.0 **** -0.24
3377 H 35.671497452371895 69.15466900962764 30.190154845301947 H 0.0 **** 0.06
3378 H 36.42844060948373 68.15561176121432 28.92691492110447 H 0.0 **** 0.06
3379 H 34.77865484514524 67.78639132020163 29.483812321332493 H 0.0 **** 0.06
3380 H 36.16854197241557 67.48519601308004 30.554971400468332 H 0.0 **** 0.06
3381 C 112.23643005023607 39.15231285211058 86.34316667853912 C 0.0 **** -0.24
3382 H 111.40460398322286 39.375110186184315 85.67503697281913 H 0.0 **** 0.06
3383 H 111.99847847275984 39.50169077676756 87.348320266537 H 0.0 **** 0.06
3384 H 113.13495431410317 39.657753882882744 85.9865685984301 H 0.0 **** 0.06
3385 H 112.40821485001692 38.07672451802041 86.36351887592824 H 0.0 **** 0.06
3386 C 34.443457576243176 94.30756464420983 116.61620047234128 C 0.0 **** -0.24
3387 H 34.14983601223845 94.76303665406735 115.66999370543616 H 0.0 **** 0.06
3388 H 35.365885049226534 94.76799061935031 116.9704547070898 H 0.0 **** 0.06
3389 H 34.6036647043791 93.23841175785651 116.47061043442486 H 0.0 **** 0.06
3390 H 33.65431949900258 94.45958358957313 117.35188372249975 H 0.0 **** 0.06
3391 C 40.641970777923575 56.38752823145516 68.13442797487451 C 0.0 **** -0.24
3392 H 41.43798164934708 56.53705717708956 67.40440441054699 H 0.0 **** 0.06
3393 H 39.700142410228295 56.75325024442761 67.72502557883087 H 0.0 **** 0.06
3394 H 40.879696399269676 56.93443209980948 69.04666327275163 H 0.0 **** 0.06
3395 H 40.55265172791087 55.324498225591974 68.36088978849455 H 0.0 **** 0.06
3396 C 54.936773466633554 34.95881654428633 86.89586746981252 C 0.0 **** -0.24
3397 H 54.70686036406073 34.03991171842493 87.43369305660525 H 0.0 **** 0.06
3398 H 54.02811686667047 35.34855508899581 86.43701496725254 H 0.0 **** 0.06
3399 H 55.67569378117719 34.752168828896934 86.12115842425663 H 0.0 **** 0.06
3400 H 55.33727079036345 35.695733591156156 87.5918572067738 H 0.0 **** 0.06
3401 C 83.48010087109861 76.58747326468145 106.84814786072417 C 0.0 **** -0.24
3402 H 84.35608429481772 76.001266970481 107.12735717365464 H 0.0 **** 0.06
3403 H 82.98052749216993 76.94475126644335 107.74818029878298 H 0.0 **** 0.06
3404 H 82.79498094899512 75.96390006540045 106.27406972239913 H 0.0 **** 0.06
3405 H 83.79153609128929 77.43876621537066 106.24264889480719 H 0.0 **** 0.06
3406 C 14.411387009801174 103.91209790384511 61.84092766091694 C 0.0 **** -0.24
3407 H 13.679029671753511 103.44220039468328 61.18494016674408 H 0.0 **** 0.06
3408 H 14.880871150367426 103.15036449812641 62.46415995014822 H 0.0 **** 0.06
3409 H 13.914014074928758 104.64596681555048 62.474349399181925 H 0.0 **** 0.06
3410 H 15.172269248358802 104.40806023921758 61.23794658838998 H 0.0 **** 0.06
3411 C 1.4097685194265779 74.6292345898625 102.63605772027944 C 0.0 **** -0.24
3412 H 0.9946051223502934 74.6284708833764 101.62791220708203 H 0.0 **** 0.06
3413 H 1.909202819222827 75.58088392850618 102.82218020670445 H 0.0 **** 0.06
3414 H 2.1301483846846025 73.81601489312379 102.73289384186205 H 0.0 **** 0.06
3415 H 0.6071017633041862 74.49166048570223 103.36021722254529 H 0.0 **** 0.06
3416 C 70.02721262378563 66.9458618390189 19.98118295004416 C 0.0 **** -0.24
3417 H 69.67059678413261 66.15856961628305 19.31804828118389 H 0.0 **** 0.06
3418 H 69.7466884400475 66.71105055262751 21.00835842638301 H 0.0 **** 0.06
3419 H 69.57943304281531 67.89640878878407 19.6907943687624 H 0.0 **** 0.06
3420 H 71.11273672483654 67.0187459850643 19.908464679427755 H 0.0 **** 0.06
3421 C 65.41853224595096 27.931313029212504 73.25669172977902 C 0.0 **** -0.24
3422 H 65.04189355861303 28.894518790007623 72.91261393992423 H 0.0 **** 0.06
3423 H 64.99715397316041 27.136227742958937 72.6406995461129 H 0.0 **** 0.06
3424 H 65.1297637497342 27.77859527215699 74.29582286580882 H 0.0 **** 0.06
3425 H 66.50596969505764 27.916322098986114 73.1753055537128 H 0.0 **** 0.06
3426 C 45.998804846290795 62.78283914238903 76.89112099323933 C 0.0 **** -0.24
3427 H 46.974252442122406 62.5997795012724 76.44154600766342 H 0.0 **** 0.06
3428 H 45.949451851733784 62.29385915143083 77.8645836180508 H 0.0 **** 0.06
3429 H 45.21922992059007 62.38332078439958 76.24380384939735 H 0.0 **** 0.06
3430 H 45.85244596661522 63.856126190688705 77.01595932540397 H 0.0 **** 0.06
3431 C 30.885013310666316 22.833588058132563 62.502583137740494 C 0.0 **** -0.24
3432 H 31.333801707015695 23.75004353391438 62.11977915382959 H 0.0 **** 0.06
3433 H 30.933235093435258 22.83361000907928 63.59177148731778 H 0.0 **** 0.06
3434 H 31.43021107304091 21.972963427731912 62.11468079032141 H 0.0 **** 0.06
3435 H 29.843673867226215 22.777389682771627 62.18445656966227 H 0.0 **** 0.06
3436 C 96.97284786794575 22.713881686521518 48.55879209048186 C 0.0 **** -0.24
3437 H 97.34852721741302 23.519321969770544 49.19112241546503 H 0.0 **** 0.06
3438 H 96.9424965168034 21.786954525420015 49.1318291095393 H 0.0 **** 0.06
3439 H 97.6314134554114 22.589558906022148 47.6997567453659 H 0.0 **** 0.06
3440 H 95.96902616241385 22.96172569125565 48.21382266976684 H 0.0 **** 0.06
3441 C 97.36262215930628 55.812084887290524 67.04698847786645 C 0.0 **** -0.24
3442 H 97.96426186263602 56.077593024873266 66.17830118904863 H 0.0 **** 0.06
3443 H 97.17919895215755 56.70268477265029 67.64769832034975 H 0.0 **** 0.06
3444 H 97.89648217309806 55.073495337105385 67.64593471827095 H 0.0 **** 0.06
3445 H 96.41233132734246 55.39293984570352 66.71749145020343 H 0.0 **** 0.06
3446 C 51.880203142561584 71.6121391372701 115.8672137108889 C 0.0 **** -0.24
3447 H 52.79571258830686 71.65505929589563 115.27671060457033 H 0.0 **** 0.06
3448 H 51.11734561953171 71.0630050566524 115.31538427601305 H 0.0 **** 0.06
3449 H 51.52820285281618 72.62448913132391 116.06570516634906 H 0.0 **** 0.06
3450 H 52.08088966031854 71.10640761351215 116.81126883030907 H 0.0 **** 0.06
3451 C 21.05931035935339 64.86893980082232 14.190072915521519 C 0.0 **** -0.24
3452 H 20.573310311678156 63.99910190611061 13.747806504833111 H 0.0 **** 0.06
3453 H 20.564440371791875 65.77616458241397 13.843258169617748 H 0.0 **** 0.06
3454 H 22.107482076309807 64.88932361542888 13.889604623068692 H 0.0 **** 0.06
3455 H 20.993619399137174 64.80924706621161 15.275658445648048 H 0.0 **** 0.06
3456 C 115.68631799837213 73.41695671600411 118.51589760949078 C 0.0 **** -0.24
3457 H 115.2458823310169 74.3847353112576 118.27591722145496 H 0.0 **** 0.06
3458 H 115.97374370762465 72.91031142636027 117.59407298536479 H 0.0 **** 0.06
3459 H 114.95754342093495 72.80948989661101 119.05251688516577 H 0.0 **** 0.06
3460 H 116.56775298306975 73.56396121391208 119.13988847710205 H 0.0 **** 0.06
3461 C 2.425317362949727 86.09117724741759 102.38967705213452 C 0.0 **** -0.24
3462 H 3.367872925900798 86.63269357224127 102.47362158602843 H 0.0 **** 0.06
3463 H 1.6538335233523185 86.76140440834283 102.00983387317103 H 0.0 **** 0.06
3464 H 2.132048118124885 85.71861290828323 103.37076598194875 H 0.0 **** 0.06
3465 H 2.548418790154898 85.2524195742746 101.70441346599165 H 0.0 **** 0.06
3466 C 4.108239202894822 32.410917259803185 65.95496030867056 C 0.0 **** -0.24
3467 H 3.9849873511565193 32.8232791578862 64.9538163723075 H 0.0 **** 0.06
3468 H 3.5248835156372422 32.999846076516995 66.66347539012503 H 0.0 **** 0.06
3469 H 5.161319870573095 32.44371125480829 66.23478926620169 H 0.0 **** 0.06
3470 H 3.7614967199944545 31.3776884012374 65.96820182299206 H 0.0 **** 0.06
3471 C 47.04070414213501 62.87694859868561 21.287177454447402 C 0.0 **** -0.24
3472 H 46.61940951835763 63.82075901536232 21.631944404308513 H 0.0 **** 0.06
3473 H 48.047603099921446 62.75964717563851 21.689739903615077 H 0.0 **** 0.06
3474 H 47.081236215614666 62.87285555507099 20.19797730653829 H 0.0 **** 0.06
3475 H 46.41475003263548 62.05265290527368 21.63060823010764 H 0.0 **** 0.06
3476 C 34.297968571182366 19.34760191176042 0.13787053421579287 C 0.0 **** -0.24
3477 H 33.625254300760616 18.497613457703096 0.01888410300861665 H 0.0 **** 0.06
3478 H 33.774680959033105 20.15415350579849 0.6521780445157788 H 0.0 **** 0.06
3479 H 34.622688178955684 19.69278165447571 -0.843940403112498 H 0.0 **** 0.06
3480 H 35.16563562031007 19.044693942403796 0.7227561131986988 H 0.0 **** 0.06
3481 C 38.0688443059689 70.69955305356976 55.3583859225135 C 0.0 **** -0.24
3482 H 38.061946496887956 69.64575601292876 55.08039353091247 H 0.0 **** 0.06
3483 H 37.12903604682861 70.95131015375063 55.850355840466456 H 0.0 **** 0.06
3484 H 38.187643040915425 71.31110113069653 54.463847834516514 H 0.0 **** 0.06
3485 H 38.898760851161 70.88912320999768 56.04000188702131 H 0.0 **** 0.06
3486 C 48.383396316678585 115.6979579038952 51.58566735713737 C 0.0 **** -0.24
3487 H 48.662258495978506 115.50417852223984 52.62093927642775 H 0.0 **** 0.06
3488 H 48.986932991972 116.5165755957621 51.194136897192266 H 0.0 **** 0.06
3489 H 47.328628396153675 115.96860375844534 51.53843368927215 H 0.0 **** 0.06
3490 H 48.55554897243832 114.80150722149028 50.990169084057015 H 0.0 **** 0.06
3491 C 113.81863419121424 9.900799202934934 65.11082363597373 C 0.0 **** -0.24
3492 H 113.72658000762718 8.934505604899584 65.60536807378207 H 0.0 **** 0.06
3493 H 114.20016713405482 9.755869740743833 64.09970955644513 H 0.0 **** 0.06
3494 H 114.5068942258003 10.532155911271957 65.67222310564881 H 0.0 **** 0.06
3495 H 112.84016187814387 10.379557340315046 65.06419544683959 H 0.0 **** 0.06
3496 C 112.85309328815191 83.46470638099817 65.51660977685154 C 0.0 **** -0.24
3497 H 112.40977053411922 84.33444837320354 66.00207594954557 H 0.0 **** 0.06
3498 H 113.8131242686299 83.74294719343047 65.08068180679942 H 0.0 **** 0.06
3499 H 112.18614111542729 83.10793422730958 64.73118629138534 H 0.0 **** 0.06
3500 H 113.00342707345527 82.67448729053797 66.25240127639213 H 0.0 **** 0.06
3501 C 65.31044767634367 44.505524785021095 70.95594195219138 C 0.0 **** -0.24
3502 H 64.67680599043635 43.67636969950368 71.26988875604235 H 0.0 **** 0.06
3503 H 66.33927414000104 44.31219905738945 71.26139227839866 H 0.0 **** 0.06
3504 H 64.96005290931973 45.42702106829384 71.42193308257555 H 0.0 **** 0.06
3505 H 65.26611473494481 44.60629604813971 69.87187494949694 H 0.0 **** 0.06
3506 C 83.59715911119747 117.13229862620582 92.78942897708896 C 0.0 **** -0.24
3507 H 83.43711682920451 118.03909002299227 92.20583372240424 H 0.0 **** 0.06
3508 H 84.02889091602108 117.3934379266322 93.75505489859597 H 0.0 **** 0.06
3509 H 84.27873935994805 116.47128465417643 92.2528802495087 H 0.0 **** 0.06
3510 H 82.64464425780602 116.62586922817871 92.94189937977981 H 0.0 **** 0.06
3511 C 3.260503585746335 117.20992605357372 65.47007985868876 C 0.0 **** -0.24
3512 H 2.549317096541813 117.98081086595688 65.76812179916058 H 0.0 **** 0.06
3513 H 3.472465948465697 116.5630729517177 66.3205870656347 H 0.0 **** 0.06
3514 H 4.183416604490446 117.68047150038436 65.13070082781474 H 0.0 **** 0.06
3515 H 2.8348871459635347 116.61876641235978 64.65929536977876 H 0.0 **** 0.06
3516 C 21.92969140462806 105.12416187420553 43.71174112095383 C 0.0 **** -0.24
3517 H 22.427044079911752 104.1579904907905 43.63101503959567 H 0.0 **** 0.06
3518 H 22.451377039245173 105.74089514565352 44.4429529138784 H 0.0 **** 0.06
3519 H 20.89741923392762 104.97596673280881 44.03102785138472 H 0.0 **** 0.06
3520 H 21.94266874333107 105.62090215698501 42.74159873503169 H 0.0 **** 0.06
3521 C 95.50395611410303 6.921885276898696 97.24965576601878 C 0.0 **** -0.24
3522 H 96.29658479013537 7.555059548670421 96.84990116163007 H 0.0 **** 0.06
3523 H 94.68440213544301 7.546925974648598 97.60493593537115 H 0.0 **** 0.06
3524 H 95.89518067125857 6.329140837414911 98.07753984223243 H 0.0 **** 0.06
3525 H 95.14133017237404 6.2561384662415005 96.46589417460129 H 0.0 **** 0.06
3526 C 40.22561079208337 10.222652212574417 89.28536428087605 C 0.0 **** -0.24
3527 H 41.05012281131754 9.990477670350863 88.61031868392558 H 0.0 **** 0.06
3528 H 39.27861661840793 10.078809248810785 88.76422431598624 H 0.0 **** 0.06
3529 H 40.305814354313235 11.258887826781557 89.61435019234253 H 0.0 **** 0.06
3530 H 40.267428028795074 9.561429811546109 90.15089696355676 H 0.0 **** 0.06
3531 C 43.34831736958853 26.345774479537724 118.79844609384942 C 0.0 **** -0.24
3532 H 42.27049200969947 26.350490147974547 118.95662240702652 H 0.0 **** 0.06
3533 H 43.569052249048696 26.707188585125067 117.79320202926219 H 0.0 **** 0.06
3534 H 43.727841992494206 25.3301372341079 118.9105202499669 H 0.0 **** 0.06
3535 H 43.825761776164654 26.996030162076067 119.53111035852594 H 0.0 **** 0.06
3536 C 23.063266286729757 83.67718681983487 67.82055752193583 C 0.0 **** -0.24
3537 H 23.830216841549095 82.9076411163239 67.91195700136564 H 0.0 **** 0.06
3538 H 22.11797033341764 83.2151195837375 67.53381884319629 H 0.0 **** 0.06
3539 H 23.362071694285767 84.39863098775774 67.06057649229308 H 0.0 **** 0.06
3540 H 22.94433586935292 84.18492664040417 68.77753943373739 H 0.0 **** 0.06
3541 C 31.139923348424276 115.67497316041181 58.504553018439424 C 0.0 **** -0.24
3542 H 30.256429020559665 115.86054936437489 59.11507885188246 H 0.0 **** 0.06
3543 H 31.840952469081287 115.05225817679926 59.05964197142248 H 0.0 **** 0.06
3544 H 31.614237880266558 116.6241637164384 58.25488605566818 H 0.0 **** 0.06
3545 H 30.845996031909664 115.16380618878304 57.58765681634998 H 0.0 **** 0.06
3546 C 51.40095491113095 11.50013337270937 93.82972925755979 C 0.0 **** -0.24
3547 H 51.599442285613804 12.007046123591891 92.88534967247989 H 0.0 **** 0.06
3548 H 51.2735243026259 12.240626493078963 94.61990012318563 H 0.0 **** 0.06
3549 H 52.24038136475991 10.847900530053806 94.07405529587172 H 0.0 **** 0.06
3550 H 50.49319474093187 10.905301568702754 93.73839987652207 H 0.0 **** 0.06
3551 C 5.541067893787385 56.063928209572964 69.7049733481445 C 0.0 **** -0.24
3552 H 5.263727344246206 56.0764473055641 70.75928122181804 H 0.0 **** 0.06
3553 H 6.146992504298169 55.180306580561705 69.50047188367458 H 0.0 **** 0.06
3554 H 6.113361838826336 56.960124691104625 69.46948670008143 H 0.0 **** 0.06
3555 H 4.639266336450078 56.03685461102083 69.09294020552147 H 0.0 **** 0.06
3556 C 43.22278777917953 80.29060799753518 49.43885953873274 C 0.0 **** -0.24
3557 H 42.813418790465846 79.28227077431058 49.49958547564813 H 0.0 **** 0.06
3558 H 43.79862722408916 80.50341434685856 50.340553537597145 H 0.0 **** 0.06
3559 H 42.40841194564348 81.00853308433062 49.34972452338661 H 0.0 **** 0.06
3560 H 43.87209284260328 80.36661425861774 48.566269375924776 H 0.0 **** 0.06
3561 C 25.955960862475024 91.31512858036717 82.84478142585772 C 0.0 **** -0.24
3562 H 26.29114811911552 90.85049305802761 83.77254969196443 H 0.0 **** 0.06
3563 H 25.301533902597242 90.62706139430554 82.30942782001074 H 0.0 **** 0.06
3564 H 26.82057315133605 91.55176470140736 82.22512388199274 H 0.0 **** 0.06
3565 H 25.41125741660494 92.23107011013269 83.07275688788641 H 0.0 **** 0.06
3566 C 97.51252656245146 39.63315588929018 27.253031578522894 C 0.0 **** -0.24
3567 H 98.26895391267792 40.339330354083074 27.596766813800997 H 0.0 **** 0.06
3568 H 97.0241889797494 40.03002578114672 26.361753622204738 H 0.0 **** 0.06
3569 H 96.77140097553126 39.48426704720268 28.038406364782304 H 0.0 **** 0.06
3570 H 97.98658777849593 38.68121698367338 27.015010945417956 H 0.0 **** 0.06
3571 C 103.30681688621098 109.79056978624445 75.22767940542946 C 0.0 **** -0.24
3572 H 103.74321918991166 110.73332994998248 75.5572652950485 H 0.0 **** 0.06
3573 H 103.51280734712648 109.01612540451902 75.96665938464884 H 0.0 **** 0.06
3574 H 103.74142626901732 109.50436415344211 74.2694938090336 H 0.0 **** 0.06
3575 H 102.22829549208592 109.90921321748824 75.11623883105335 H 0.0 **** 0.06
3576 C 89.07500918892558 43.96725154218288 85.36491429971562 C 0.0 **** -0.24
3577 H 88.54326563611431 44.36942637177759 86.2267517091775 H 0.0 **** 0.06
3578 H 88.5800320528781 44.290802456053626 84.44914630355004 H 0.0 **** 0.06
3579 H 89.07525706035139 42.87838016745977 85.41343883816103 H 0.0 **** 0.06
3580 H 90.10323883303946 44.330423625152434 85.37127590778496 H 0.0 **** 0.06
3581 C 110.24157197912223 40.5159528604475 51.53559913177352 C 0.0 **** -0.24
3582 H 110.6705129366403 40.02590554259407 52.4101744024598 H 0.0 **** 0.06
3583 H 109.17842141893522 40.692740318705305 51.703860098130804 H 0.0 **** 0.06
3584 H 110.37123052809079 39.87804256920442 50.662020504129856 H 0.0 **** 0.06
3585 H 110.74608013711259 41.468161783163765 51.369935953171534 H 0.0 **** 0.06
3586 C 82.56271822331715 8.205695202311858 48.49641026303718 C 0.0 **** -0.24
3587 H 83.52428439127263 7.714242638527452 48.64314616828702 H 0.0 **** 0.06
3588 H 82.59299007181568 9.202188272217882 48.937866701207184 H 0.0 **** 0.06
3589 H 81.77854454425577 7.618626121282006 48.975298717508224 H 0.0 **** 0.06
3590 H 82.35562288293391 8.286096011576916 47.4291657669763 H 0.0 **** 0.06
3591 C 112.85535619990722 22.54927825053028 29.71270282876867 C 0.0 **** -0.24
3592 H 113.70463480976879 23.162071025558532 29.408159710560767 H 0.0 **** 0.06
3593 H 113.12645223260873 21.964464812709366 30.59123780679147 H 0.0 **** 0.06
3594 H 112.58271282277228 21.87780574205817 28.898018303077833 H 0.0 **** 0.06
3595 H 112.0093925290128 23.193904546924273 29.9512525611338 H 0.0 **** 0.06
3596 C 20.431028678429357 41.73005716920231 89.83799340517953 C 0.0 **** -0.24
3597 H 20.42044986909383 42.79588307465251 90.06699738523827 H 0.0 **** 0.06
3598 H 20.142733746570514 41.578931486640926 88.79774794026292 H 0.0 **** 0.06
3599 H 19.7282381117505 41.21137003932998 90.49024540124796 H 0.0 **** 0.06
3600 H 21.434101667032905 41.33394330221667 89.99839912044831 H 0.0 **** 0.06
3601 C 2.7459499506508394 93.57839267897123 84.41737442345658 C 0.0 **** -0.24
3602 H 2.272338276817834 94.15456531953379 85.21204141089919 H 0.0 **** 0.06
3603 H 2.3988173327040556 92.54567471511518 84.45987340638118 H 0.0 **** 0.06
3604 H 3.828347607310917 93.60401608992254 84.54556707687829 H 0.0 **** 0.06
3605 H 2.485019206122189 94.01024341746233 83.45074486399403 H 0.0 **** 0.06
3606 C 27.68279830783058 71.05487361039954 23.41106427637539 C 0.0 **** -0.24
3607 H 27.18329039108653 71.51320909515084 22.557177264592735 H 0.0 **** 0.06
3608 H 27.570840283947916 71.69782531838462 24.28541729815911 H 0.0 **** 0.06
3609 H 28.742250567279257 70.92912799655716 23.186726255409816 H 0.0 **** 0.06
3610 H 27.235778907373344 70.0828032351535 23.615065032696045 H 0.0 **** 0.06
3611 C 18.269716586236598 59.15595734014363 43.74695545425885 C 0.0 **** -0.24
3612 H 19.34508353016213 59.318177726127885 43.68458587297846 H 0.0 **** 0.06
3613 H 17.896768571604582 59.55093089489628 44.691550179416424 H 0.0 **** 0.06
3614 H 18.0598240987149 58.08765820804632 43.691316479777754 H 0.0 **** 0.06
3615 H 17.77691832250909 59.66605147030819 42.91941850350014 H 0.0 **** 0.06
3616 C 20.435335574332413 76.42771639185992 41.59680786966362 C 0.0 **** -0.24
3617 H 20.717881594214248 77.45966253608304 41.386856652520805 H 0.0 **** 0.06
3618 H 19.35865635261746 76.31371946222887 41.47262213531786 H 0.0 **** 0.06
3619 H 20.71183547350799 76.17787182389401 42.62119308766745 H 0.0 **** 0.06
3620 H 20.954164361999858 75.76215720373003 40.907604583368425 H 0.0 **** 0.06
3621 C 6.828781759204759 46.270666658179294 7.990984604834509 C 0.0 **** -0.24
3622 H 6.986279422609584 47.23529319290586 8.475390232832211 H 0.0 **** 0.06
3623 H 5.838004244791222 46.2520982582856 7.536375175752539 H 0.0 **** 0.06
3624 H 6.905012787659956 45.4748284870102 8.731496570415132 H 0.0 **** 0.06
3625 H 7.585894265900208 46.12360066075274 7.220455020178662 H 0.0 **** 0.06
3626 C 62.011337481353394 78.70879088397231 20.87070713136626 C 0.0 **** -0.24
3627 H 63.04679530287075 78.961972388889 20.642129312689292 H 0.0 **** 0.06
3628 H 61.90191789347364 77.62461617290091 20.90835233250789 H 0.0 **** 0.06
3629 H 61.35913621882702 79.11315606857261 20.09548781932483 H 0.0 **** 0.06
3630 H 61.737766005994104 79.13612478744932 21.8352997603331 H 0.0 **** 0.06
3631 C 107.89043002513614 65.989843519886 47.578465886931326 C 0.0 **** -0.24
3632 H 107.34025648238398 66.74107932822244 47.01105470004774 H 0.0 **** 0.06
3633 H 108.75917263521498 65.66625723284062 47.00505872946644 H 0.0 **** 0.06
3634 H 107.24229392413463 65.13344328440971 47.770450085888456 H 0.0 **** 0.06
3635 H 108.21753241252475 66.41772105770352 48.52622135249044 H 0.0 **** 0.06
3636 C 4.0296224609113835 45.57764376331133 73.40250251829849 C 0.0 **** -0.24
3637 H 4.857181355192878 44.872361228609634 73.33110679477122 H 0.0 **** 0.06
3638 H 3.71811095339487 45.87414419514499 72.40097836083675 H 0.0 **** 0.06
3639 H 4.34956550632063 46.45772559457035 73.95964427859494 H 0.0 **** 0.06
3640 H 3.194036104722869 45.10438522151006 73.91827802086507 H 0.0 **** 0.06
3641 C 42.65004919478527 22.518199761516996 67.43714103701558 C 0.0 **** -0.24
3642 H 42.15149248060926 23.17917240460713 66.7282962546615 H 0.0 **** 0.06
3643 H 42.204241481731124 22.643167811778653 68.42459843688917 H 0.0 **** 0.06
3644 H 43.71039876489205 22.76703401766315 67.48200618302087 H 0.0 **** 0.06
3645 H 42.532839488849575 21.48410988745013 67.11384000516586 H 0.0 **** 0.06
3646 C 31.214548873858007 32.505420050140145 75.67496360311887 C 0.0 **** -0.24
3647 H 32.18531273171172 32.91770739254187 75.39949444469744 H 0.0 **** 0.06
3648 H 31.046590835539035 31.577855210619447 75.1272299414523 H 0.0 **** 0.06
3649 H 30.432381642248515 33.22245023310498 75.42604254196917 H 0.0 **** 0.06
3650 H 31.195789971236536 32.30464343923768 76.74585686978907 H 0.0 **** 0.06
3651 C 78.29142163736614 10.95085972165191 83.52228094038904 C 0.0 **** -0.24
3652 H 77.5610923489763 10.929175011059073 84.3300069867148 H 0.0 **** 0.06
3653 H 78.62897024199026 9.935441678206843 83.30904200112514 H 0.0 **** 0.06
3654 H 79.14376278840322 11.562630672663744 83.81913356366914 H 0.0 **** 0.06
3655 H 77.83218792590341 11.376055695159351 82.62873325312373 H 0.0 **** 0.06
3656 C 11.74033277186868 86.4604924332478 6.310266942577471 C 0.0 **** -0.24
3657 H 10.797613813071493 85.91472092463263 6.330513658696788 H 0.0 **** 0.06
3658 H 12.479869159426968 85.92954897188824 6.909228970082907 H 0.0 **** 0.06
3659 H 11.590668692296191 87.45997336314116 6.719412566878518 H 0.0 **** 0.06
3660 H 12.09272908233001 86.53761758881501 5.281026348783243 H 0.0 **** 0.06
3661 C 86.69023504407107 77.36795957582831 118.67347280092758 C 0.0 **** -0.24
3662 H 86.3566670497475 77.53139159601005 117.64935471172419 H 0.0 **** 0.06
3663 H 85.95578632242791 77.77989241623271 119.36526392162217 H 0.0 **** 0.06
3664 H 87.65017783469278 77.86226390772723 118.8258430425434 H 0.0 **** 0.06
3665 H 86.80044480750036 76.29779077034149 118.85299492994 H 0.0 **** 0.06
3666 C 111.25602290619247 77.77377683295418 52.01998338634172 C 0.0 **** -0.24
3667 H 111.07640985957198 78.40829123944036 51.15168779617764 H 0.0 **** 0.06
3668 H 110.70088965256568 76.84239318747439 51.91081785408426 H 0.0 **** 0.06
3669 H 110.92493121968293 78.29101549797466 52.92136295008851 H 0.0 **** 0.06
3670 H 112.321345886406 77.5569441742083 52.09654118730515 H 0.0 **** 0.06
3671 C 10.48046999948059 13.54502788872459 69.20405280851804 C 0.0 **** -0.24
3672 H 10.561744483420313 12.463503891876005 69.32265721107376 H 0.0 **** 0.06
3673 H 10.895097594053766 14.038258069357536 70.0839230204254 H 0.0 **** 0.06
3674 H 9.431510495566926 13.819670564166973 69.09287758951291 H 0.0 **** 0.06
3675 H 11.034660187773454 13.855178391394034 68.31832290916702 H 0.0 **** 0.06
3676 C 89.05425681714087 76.63467717430203 114.47410671108483 C 0.0 **** -0.24
3677 H 89.2700058918002 76.80510262765978 113.41982258780794 H 0.0 **** 0.06
3678 H 89.9785475256244 76.69488719784272 115.0492215198222 H 0.0 **** 0.06
3679 H 88.61207393980106 75.64531492964935 114.59863110445303 H 0.0 **** 0.06
3680 H 88.35453231745606 77.39181887310059 114.82875255394421 H 0.0 **** 0.06
3681 C 56.364558260405545 105.75946205880342 59.75522658135146 C 0.0 **** -0.24
3682 H 55.71993391093255 106.16771108785633 58.97745881996453 H 0.0 **** 0.06
3683 H 56.68593807752035 106.56176107950375 60.418438303634154 H 0.0 **** 0.06
3684 H 57.23709309688073 105.29432626133271 59.296717904955635 H 0.0 **** 0.06
3685 H 55.81431836150736 105.01265091612669 60.32722283550428 H 0.0 **** 0.06
3686 C 103.0351970354157 28.417094595417154 44.9832741144022 C 0.0 **** -0.24
3687 H 103.05185515299198 29.03303245926415 44.08500604034212 H 0.0 **** 0.06
3688 H 103.69680312695203 28.85098997508689 45.73306125235295 H 0.0 **** 0.06
3689 H 103.37186821667021 27.41010068902355 44.739496999339664 H 0.0 **** 0.06
3690 H 102.01891273488587 28.375975424514138 45.3760030820638 H 0.0 **** 0.06
3691 C 45.126277170833504 94.44748738633982 111.48753506499935 C 0.0 **** -0.24
3692 H 45.60673999564494 95.00118418395303 110.68090262192064 H 0.0 **** 0.06
3693 H 45.77410909148827 93.62941071014563 111.80222843285259 H 0.0 **** 0.06
3694 H 44.17611927420782 94.04550179819324 111.1368741406184 H 0.0 **** 0.06
3695 H 44.94840700222886 95.11556045050514 112.33024981789617 H 0.0 **** 0.06
3696 C 7.89219443263325 76.25482858306876 18.339058420692453 C 0.0 **** -0.24
3697 H 8.673194496364943 75.64016775734797 17.891625150828332 H 0.0 **** 0.06
3698 H 8.314059524507979 77.21164099946571 18.646779749564047 H 0.0 **** 0.06
3699 H 7.479558395494099 75.74250377281007 19.20835548016899 H 0.0 **** 0.06
3700 H 7.100518130942117 76.42353527499486 17.608604250920877 H 0.0 **** 0.06
3701 C 107.06180382250074 68.98075828655962 5.7717242470347685 C 0.0 **** -0.24
3702 H 106.92546281155737 68.71859878812867 4.722150932184078 H 0.0 **** 0.06
3703 H 107.57429350688284 69.93949939617156 5.843119685015196 H 0.0 **** 0.06
3704 H 107.65823559985705 68.211208568935 6.262996071553886 H 0.0 **** 0.06
3705 H 106.08865672776736 69.05114679313118 6.257207237134239 H 0.0 **** 0.06
3706 C 65.78775868282801 87.56605951934947 23.20935357205329 C 0.0 **** -0.24
3707 H 65.5532755363804 86.69946028016514 22.59121929877793 H 0.0 **** 0.06
3708 H 65.17194755230602 87.54619049754868 24.109146609178254 H 0.0 **** 0.06
3709 H 65.58262168275087 88.47862894335714 22.64839679050357 H 0.0 **** 0.06
3710 H 66.84112110063941 87.53935397527471 23.4880559071197 H 0.0 **** 0.06
3711 C 3.4766137518439137 100.2668044394824 23.590979077111967 C 0.0 **** -0.24
3712 H 3.525126298277229 99.24068374589754 23.956647610435738 H 0.0 **** 0.06
3713 H 3.8985477972936877 100.93887778460197 24.3392335369887 H 0.0 **** 0.06
3714 H 2.4381257378269936 100.53749124193851 23.40378989251431 H 0.0 **** 0.06
3715 H 4.046517703663113 100.34950283478051 22.665290654752766 H 0.0 **** 0.06
3716 C 17.514438700702726 93.96291073494143 91.64195181072404 C 0.0 **** -0.24
3717 H 16.456825658244384 93.98424596850862 91.90291535396321 H 0.0 **** 0.06
3718 H 17.66561985386994 94.48687067900346 90.69792806495346 H 0.0 **** 0.06
3719 H 17.84300920399062 92.9289791407532 91.54047568833147 H 0.0 **** 0.06
3720 H 18.091630762468384 94.45277565232209 92.4262809933962 H 0.0 **** 0.06
3721 C 91.0965137905778 53.57279580650581 24.61415272691837 C 0.0 **** -0.24
3722 H 91.54130947589698 53.585528250242874 25.608918136883148 H 0.0 **** 0.06
3723 H 90.7206976800015 54.566443913951304 24.371286041321326 H 0.0 **** 0.06
3724 H 90.27338671592844 52.85749033326968 24.593378760023036 H 0.0 **** 0.06
3725 H 91.8499702365043 53.27937375168449 23.882907573038707 H 0.0 **** 0.06
3726 C 95.9508067758367 108.23481168083313 69.9586262085125 C 0.0 **** -0.24
3727 H 95.23137834384818 108.40568695914769 70.75941515448298 H 0.0 **** 0.06
3728 H 96.84624044382605 108.82849276816526 70.14172416951658 H 0.0 **** 0.06
3729 H 95.50912318167167 108.52513122513542 69.00620632281161 H 0.0 **** 0.06
3730 H 96.21621188378458 107.17768166445683 69.9288458428054 H 0.0 **** 0.06
3731 C 49.67448898661817 50.445533415796106 76.91112901580783 C 0.0 **** -0.24
3732 H 50.53433339689602 51.06794813441941 76.6597365250127 H 0.0 **** 0.06
3733 H 49.76696569058464 49.48060893971778 76.41213060415106 H 0.0 **** 0.06
3734 H 48.76049914683304 50.93956790307413 76.5803252781939 H 0.0 **** 0.06
3735 H 49.63722522580005 50.2965269249655 77.9897702842162 H 0.0 **** 0.06
3736 C 6.626562138766939 16.257796340431497 34.12993180493882 C 0.0 **** -0.24
3737 H 7.194807051041153 15.773229284016224 33.33564087197104 H 0.0 **** 0.06
3738 H 6.37106291770368 17.27328583886191 33.82585969841139 H 0.0 **** 0.06
3739 H 7.226888147174709 16.290397144013724 35.0384076511597 H 0.0 **** 0.06
3740 H 5.712254805537237 15.693458325390452 34.318142796219234 H 0.0 **** 0.06
3741 C 34.52174595828181 35.052889436967746 104.32347590534332 C 0.0 **** -0.24
3742 H 33.545591137826634 35.50213730368114 104.14121872642184 H 0.0 **** 0.06
3743 H 34.9910901755181 35.54060614185852 105.17853792639517 H 0.0 **** 0.06
3744 H 35.15032937531635 35.18010528725284 103.44290648583595 H 0.0 **** 0.06
3745 H 34.399947299652354 33.99046840179568 104.53294466632971 H 0.0 **** 0.06
3746 C 93.58807452531752 84.0157136367942 106.79041757370376 C 0.0 **** -0.24
3747 H 93.64656440834338 84.79468682353252 106.0297025651137 H 0.0 **** 0.06
3748 H 94.33522878362933 83.24958397117342 106.58294124480801 H 0.0 **** 0.06
3749 H 92.59399251037021 83.56920852738114 106.7765725799413 H 0.0 **** 0.06
3750 H 93.77713628533004 84.45269312082468 107.77118777111016 H 0.0 **** 0.06
3751 C 95.436084282053 47.50542788566999 106.20522997809184 C 0.0 **** -0.24
3752 H 94.639429252594 48.24191149914739 106.31058283326746 H 0.0 **** 0.06
3753 H 95.58393489425654 47.2790176488791 105.14899079636041 H 0.0 **** 0.06
3754 H 95.1610366398219 46.595218437799005 106.73751851574744 H 0.0 **** 0.06
3755 H 96.35864043254213 47.90729675695181 106.62326357155968 H 0.0 **** 0.06
3756 C 3.631853823317627 101.37781476588881 45.77765754583052 C 0.0 **** -0.24
3757 H 2.603447009888356 101.01487893369332 45.765342573575964 H 0.0 **** 0.06
3758 H 3.904792118152585 101.65670940190955 46.795576038608345 H 0.0 **** 0.06
3759 H 3.7172500271213096 102.2470052206159 45.12631589336195 H 0.0 **** 0.06
3760 H 4.297879663855909 100.59118333995619 45.42405167974931 H 0.0 **** 0.06
3761 C 80.1598888038578 53.2444964434315 17.84460205427115 C 0.0 **** -0.24
3762 H 80.01935226876142 52.53828248981904 18.66223940654669 H 0.0 **** 0.06
3763 H 81.05445006451853 53.83949734841519 18.02731663156021 H 0.0 **** 0.06
3764 H 79.29309876734607 53.90263344137355 17.780630805644023 H 0.0 **** 0.06
3765 H 80.27107464740715 52.699115009823174 16.90716011022323 H 0.0 **** 0.06
3766 C 104.9921784625889 37.52914594713002 37.43377269372638 C 0.0 **** -0.24
3767 H 105.90399465721998 37.00812933133062 37.725730709084615 H 0.0 **** 0.06
3768 H 104.77317512140723 38.31292233978979 38.160367350570226 H 0.0 **** 0.06
3769 H 104.16421394227316 36.82100366692697 37.40152631254736 H 0.0 **** 0.06
3770 H 105.12863160282123 37.97459024373296 36.44801637160029 H 0.0 **** 0.06
3771 C 60.66209004781239 91.80968666443445 50.97692986700977 C 0.0 **** -0.24
3772 H 61.3301376165816 92.13336535073609 50.178546409808405 H 0.0 **** 0.06
3773 H 61.1756826300904 91.8873293213583 51.9350832119857 H 0.0 **** 0.06
3774 H 60.36535590977844 90.77471715737991 50.80572658236079 H 0.0 **** 0.06
3775 H 59.775559821806404 92.44415031671596 50.98706049624184 H 0.0 **** 0.06
3776 C 70.07854941023874 91.90939678665714 92.1798756167772 C 0.0 **** -0.24
3777 H 70.4721785922265 92.92554064438121 92.22639859738194 H 0.0 **** 0.06
3778 H 69.02589574984015 91.9144914739488 92.46347905478981 H 0.0 **** 0.06
3779 H 70.63718908477654 91.27272866605733 92.8656095019659 H 0.0 **** 0.06
3780 H 70.18078938248453 91.52726217900417 91.16480634557999 H 0.0 **** 0.06
3781 C 82.25943066055072 4.990015345353157 103.24738966651134 C 0.0 **** -0.24
3782 H 81.23538286720202 4.635930905413062 103.12599388564317 H 0.0 **** 0.06
3783 H 82.86011666055049 4.659802727132359 102.39938755785357 H 0.0 **** 0.06
3784 H 82.67657308084665 4.583678676871614 104.1689526320342 H 0.0 **** 0.06
3785 H 82.26400223261828 6.079165490086837 103.2941833950562 H 0.0 **** 0.06
3786 C 82.34033383626121 93.52529980491474 46.37573579385892 C 0.0 **** -0.24
3787 H 81.40152361842621 93.54754172726174 46.928654603742046 H 0.0 **** 0.06
3788 H 82.23209997845785 94.09614759603048 45.45323873221611 H 0.0 **** 0.06
3789 H 82.59752042526364 92.49293994569186 46.13775307434025 H 0.0 **** 0.06
3790 H 83.13032657061447 93.9656801258626 46.98461941202251 H 0.0 **** 0.06
3791 C 39.12703433190961 104.78705643933483 13.004070372014098 C 0.0 **** -0.24
3792 H 38.439009292593056 105.12190494658648 12.227480634478582 H 0.0 **** 0.06
3793 H 38.60195343705723 104.74031795626354 13.959132804873207 H 0.0 **** 0.06
3794 H 39.9575357271342 105.48942375140658 13.080674605528657 H 0.0 **** 0.06
3795 H 39.50849655816663 103.79827004683025 12.749907841206948 H 0.0 **** 0.06
3796 C 100.28718808531121 41.34399048997443 31.55203782679422 C 0.0 **** -0.24
3797 H 100.3646813386091 40.473023054631284 32.2033028485485 H 0.0 **** 0.06
3798 H 100.95820659527374 42.1256379611857 31.90908123499088 H 0.0 **** 0.06
3799 H 99.26149909762992 41.713764142150325 31.561211701099126 H 0.0 **** 0.06
3800 H 100.56376858016355 41.0637868089992 30.535813110469235 H 0.0 **** 0.06
3801 C 67.95809487493412 101.70591905845731 101.02951245870241 C 0.0 **** -0.24
3802 H 67.20454597386015 100.92684372332744 101.14228750275612 H 0.0 **** 0.06
3803 H 68.70881493608891 101.38305594163077 100.30678534075179 H 0.0 **** 0.06
3804 H 68.43556327085346 101.89031370906389 101.99223420168599 H 0.0 **** 0.06
3805 H 67.48460618334957 102.62177720587871 100.67765623075815 H 0.0 **** 0.06
3806 C 78.55937657167371 108.25452872737847 35.668202652199795 C 0.0 **** -0.24
3807 H 79.29704769271575 108.97850601178803 36.013086296262884 H 0.0 **** 0.06
3808 H 78.08379392601225 108.62611177221697 34.760461077932234 H 0.0 **** 0.06
3809 H 77.80493890885825 108.10712198683035 36.440276852415934 H 0.0 **** 0.06
3810 H 79.05303516787362 107.30617011480649 35.456926342079555 H 0.0 **** 0.06
3811 C 18.403531989739122 73.20212250813844 19.395190175887336 C 0.0 **** -0.24
3812 H 18.446035993953757 72.28621484146353 18.804734252936385 H 0.0 **** 0.06
3813 H 19.299900439203896 73.27748627694254 20.010914533322136 H 0.0 **** 0.06
3814 H 17.522269354548882 73.17939046972685 20.037040665190545 H 0.0 **** 0.06
3815 H 18.345628617217017 74.06180804948886 18.72822504260529 H 0.0 **** 0.06
3816 C 48.645226612765995 58.730667395692926 47.70348428886621 C 0.0 **** -0.24
3817 H 49.05967062925154 58.34747137828797 48.636312020973946 H 0.0 **** 0.06
3818 H 49.18496490350353 59.6302456013892 47.40937353166805 H 0.0 **** 0.06
3819 H 47.59105018098536 58.969222248181715 47.84596314811267 H 0.0 **** 0.06
3820 H 48.744400232070774 57.97505310485335 46.92509356264259 H 0.0 **** 0.06
3821 C 18.07612441389611 95.50352938914102 15.045005655678722 C 0.0 **** -0.24
3822 H 18.798107321092044 96.27714227435558 14.784624547469264 H 0.0 **** 0.06
3823 H 17.480904571401016 95.25102056933889 14.166683797884446 H 0.0 **** 0.06
3824 H 17.42064986105049 95.87085907657621 15.834662278812885 H 0.0 **** 0.06
3825 H 18.60390163720929 94.6161238490993 15.394316658267243 H 0.0 **** 0.06
3826 C 30.68181181992952 50.932183709090225 22.73885910662652 C 0.0 **** -0.24
3827 H 29.959819091649337 50.14822734082469 22.96892545040957 H 0.0 **** 0.06
3828 H 31.513548188179215 50.87666981843199 23.441230373246896 H 0.0 **** 0.06
3829 H 30.199119662755066 51.90641373793284 22.823184472631354 H 0.0 **** 0.06
3830 H 31.05272480131123 50.79747896481712 21.72302017506648 H 0.0 **** 0.06
3831 C 74.36027410661592 58.96453589065367 60.542135556030075 C 0.0 **** -0.24
3832 H 73.31825424205121 59.281612289178746 60.49216784908822 H 0.0 **** 0.06
3833 H 74.87752393677258 59.537654004293465 61.312709309404056 H 0.0 **** 0.06
3834 H 74.83793218147915 59.13701895356012 59.57835765212798 H 0.0 **** 0.06
3835 H 74.4054611145105 57.90321214709443 60.78598715810773 H 0.0 **** 0.06
3836 C 33.074891368755544 84.53232907741483 101.2140940633995 C 0.0 **** -0.24
3837 H 33.714172497845 83.65539534386508 101.11772825815876 H 0.0 **** 0.06
3838 H 32.23079404173009 84.44321461590371 100.52978644210754 H 0.0 **** 0.06
3839 H 33.6468875037543 85.4275697934385 100.97009395030801 H 0.0 **** 0.06
3840 H 32.70738276629564 84.60313250677083 102.23739207411654 H 0.0 **** 0.06
3841 C 47.792651687106684 30.897301089191046 66.8589537521043 C 0.0 **** -0.24
3842 H 48.04091814616163 31.469099562463725 65.96505173620369 H 0.0 **** 0.06
3843 H 47.650047568941176 29.850118444543455 66.59203401207603 H 0.0 **** 0.06
3844 H 46.874412982524746 31.288893660571603 67.29739593292007 H 0.0 **** 0.06
3845 H 48.60426807947823 30.981275610142177 67.58112106901368 H 0.0 **** 0.06
3846 C 16.738456620841617 0.32873884652809693 118.50406033453 C 0.0 **** -0.24
3847 H 16.378550224941506 -0.2250725334261432 117.63574297634351 H 0.0 **** 0.06
3848 H 17.739456228393067 0.7085546075963833 118.30219830617236 H 0.0 **** 0.06
3849 H 16.767019469131668 -0.3330028627996313 119.36936294392169 H 0.0 **** 0.06
3850 H 16.066950838362942 1.163111084547154 118.70598484558477 H 0.0 **** 0.06
3851 C 42.29207891397465 66.48655441912365 59.65655007009081 C 0.0 **** -0.24
3852 H 43.33406032059611 66.38961995768304 59.9625942950079 H 0.0 **** 0.06
3853 H 41.89838184919222 67.44091567785486 60.006686894168574 H 0.0 **** 0.06
3854 H 41.71002751879705 65.67200527619266 60.08789847914553 H 0.0 **** 0.06
3855 H 42.227412815207146 66.44195389926526 58.5697802655828 H 0.0 **** 0.06
3856 C 85.14859522852552 79.26387599637789 89.28563608923255 C 0.0 **** -0.24
3857 H 85.55252914455576 79.20587056883596 88.27447814818771 H 0.0 **** 0.06
3858 H 84.11543093707658 79.6084015468914 89.24527223377882 H 0.0 **** 0.06
3859 H 85.74337252781473 79.96224670106102 89.87371588523683 H 0.0 **** 0.06
3860 H 85.18550753652949 78.27690092376167 89.74717837360421 H 0.0 **** 0.06
3861 C 54.60875989269829 33.838641507172724 57.011001089690836 C 0.0 **** -0.24
3862 H 54.09972732022567 33.15140271070518 57.686430003420185 H 0.0 **** 0.06
3863 H 55.26903422042318 33.27568011109191 56.350548286334885 H 0.0 **** 0.06
3864 H 55.19536852837547 34.5502358561841 57.59161139781369 H 0.0 **** 0.06
3865 H 53.87043241718197 34.37591667469631 56.41545720072372 H 0.0 **** 0.06
3866 C 72.3437824815426 43.67921865374143 55.05091228727838 C 0.0 **** -0.24
3867 H 71.3848514289279 43.231235827102154 54.79004219776101 H 0.0 **** 0.06
3868 H 72.65151064627412 43.33038321133759 56.036764604218206 H 0.0 **** 0.06
3869 H 72.24541766238457 44.76473998274366 55.062547564145916 H 0.0 **** 0.06
3870 H 73.09311114807937 43.390020138857565 54.31345965269128 H 0.0 **** 0.06
3871 C 76.73773927204996 108.7577405016689 18.724726237125452 C 0.0 **** -0.24
3872 H 76.42231527682466 108.22554761535841 17.827650450481798 H 0.0 **** 0.06
3873 H 75.87619661999062 109.25461856521818 19.173318648066385 H 0.0 **** 0.06
3874 H 77.4896559421704 109.50125786935507 18.460402927352334 H 0.0 **** 0.06
3875 H 77.15996633256987 108.04967187446124 19.43741597761212 H 0.0 **** 0.06
3876 C 107.48001367570168 68.55234547686479 51.84024987560791 C 0.0 **** -0.24
3877 H 108.20511454780822 68.16067579374334 52.55355986929112 H 0.0 **** 0.06
3878 H 107.58482371192707 69.63522895179364 51.774001857720286 H 0.0 **** 0.06
3879 H 106.47225044327845 68.30443022070983 52.17328869351161 H 0.0 **** 0.06
3880 H 107.65883979798468 68.10919486154307 50.86116394829105 H 0.0 **** 0.06
3881 C 97.36518678777645 30.8685783317585 29.268197297662624 C 0.0 **** -0.24
3882 H 96.61004897462487 31.140646508266045 30.006113552436943 H 0.0 **** 0.06
3883 H 97.2559876268295 31.501437810838482 28.38607477951095 H 0.0 **** 0.06
3884 H 97.2357374884105 29.82452157764095 28.984488123583247 H 0.0 **** 0.06
3885 H 98.35713884134279 31.008980587534353 29.69599025742889 H 0.0 **** 0.06
3886 C 40.30810357324944 2.394968553901151 77.8737510111757 C 0.0 **** -0.24
3887 H 39.49624939324801 2.3123905761605954 78.59604818694368 H 0.0 **** 0.06
3888 H 40.73693812809435 1.408421116896335 77.69363788856333 H 0.0 **** 0.06
3889 H 41.0773560878626 3.059622860377317 78.26752736713394 H 0.0 **** 0.06
3890 H 39.92169991299593 2.8000766453553467 76.9385423655325 H 0.0 **** 0.06
3891 C 89.22314141703981 111.42070385751938 56.14861006450926 C 0.0 **** -0.24
3892 H 90.13268020138165 111.40119170383966 55.548333430521446 H 0.0 **** 0.06
3893 H 88.77876901411096 112.41467055303711 56.10185627495158 H 0.0 **** 0.06
3894 H 89.46600654750861 111.17803963892122 57.182955342154465 H 0.0 **** 0.06
3895 H 88.51625067173194 110.68731659481413 55.760223422763495 H 0.0 **** 0.06
3896 C 110.68488229600422 60.685826137326416 112.71276701323185 C 0.0 **** -0.24
3897 H 111.58818399757777 60.07871296031777 112.6659149544041 H 0.0 **** 0.06
3898 H 109.90573065750073 60.137702964428286 113.24339431945256 H 0.0 **** 0.06
3899 H 110.3461817702862 60.910731377696834 111.70033415825154 H 0.0 **** 0.06
3900 H 110.8991598479571 61.61596299309366 113.23921372099842 H 0.0 **** 0.06
3901 C 78.72915432777677 97.67812608298556 83.3480166663567 C 0.0 **** -0.24
3902 H 78.4474198141429 98.10159447245047 84.31303006750508 H 0.0 **** 0.06
3903 H 77.91425557045409 97.05940249688507 82.97110851109795 H 0.0 **** 0.06
3904 H 79.62440572539151 97.06897044170103 83.4661302343508 H 0.0 **** 0.06
3905 H 78.92909812949654 98.48511728884813 82.64330592920533 H 0.0 **** 0.06
3906 C 64.66201905933653 22.085183763097177 66.02774937769209 C 0.0 **** -0.24
3907 H 64.25523812206666 21.522357226730385 66.8681898315545 H 0.0 **** 0.06
3908 H 63.8441806799411 22.525123748036766 65.4566068439803 H 0.0 **** 0.06
3909 H 65.23597582019855 21.41597481122436 65.386702116697 H 0.0 **** 0.06
3910 H 65.31123464532882 22.877094217444025 66.40119351293208 H 0.0 **** 0.06
3911 C 17.299904492749334 16.347125113070103 102.87219019811226 C 0.0 **** -0.24
3912 H 17.65132720399114 15.51084174626343 103.47620241156193 H 0.0 **** 0.06
3913 H 17.241279726042055 16.039959954636586 101.82751736344977 H 0.0 **** 0.06
3914 H 17.996087603444764 17.181120300289326 102.96749887334937 H 0.0 **** 0.06
3915 H 16.313017340133683 16.655808240482305 103.2173916773076 H 0.0 **** 0.06
3916 C 110.11498749810461 66.71465355666044 71.49149089609483 C 0.0 **** -0.24
3917 H 110.90845447120691 67.43814192094467 71.30266199874438 H 0.0 **** 0.06
3918 H 109.25224655996672 67.22461609826561 71.92080416593024 H 0.0 **** 0.06
3919 H 110.4744816069716 65.95753732553266 72.18922840943117 H 0.0 **** 0.06
3920 H 109.8283471215639 66.23806998108418 70.55432926229395 H 0.0 **** 0.06
3921 C 96.63006163837187 7.031901126173835 36.06891384022663 C 0.0 **** -0.24
3922 H 96.3031151609276 6.350116189960815 35.283605053627866 H 0.0 **** 0.06
3923 H 97.25300056147577 7.813741476698098 35.633104935798826 H 0.0 **** 0.06
3924 H 97.20530074665592 6.480585074925713 36.812973764525964 H 0.0 **** 0.06
3925 H 95.75899986617537 7.483160908149358 36.54352793660439 H 0.0 **** 0.06
3926 C 31.381492723500003 66.16535309869903 91.06920069277561 C 0.0 **** -0.24
3927 H 30.393264267919164 66.622741794376 91.0153889412602 H 0.0 **** 0.06
3928 H 32.12522649673389 66.93178484969627 91.28983179028921 H 0.0 **** 0.06
3929 H 31.616233527799295 65.69434623974323 90.11490051163236 H 0.0 **** 0.06
3930 H 31.391102069660576 65.41216901679874 91.85759908072737 H 0.0 **** 0.06
3931 C 83.72367462094235 73.17826269779789 80.91397655580803 C 0.0 **** -0.24
3932 H 82.64974454670389 73.33571110419592 80.80831278159866 H 0.0 **** 0.06
3933 H 83.90266875445471 72.2213921479534 81.40526310451514 H 0.0 **** 0.06
3934 H 84.15095683670754 73.98122094932904 81.51432853762282 H 0.0 **** 0.06
3935 H 84.18841346541885 73.17404009576359 79.92818269958471 H 0.0 **** 0.06
3936 C 89.13253731865706 118.66738065447385 109.00315560536649 C 0.0 **** -0.24
3937 H 88.72466101986419 119.66672711078475 109.15763926899987 H 0.0 **** 0.06
3938 H 88.63995845537207 118.20362151446194 108.14888863527563 H 0.0 **** 0.06
3939 H 88.96023862070206 118.06346467666977 109.89396546743252 H 0.0 **** 0.06
3940 H 90.2030547927574 118.73753720290568 108.81294018129336 H 0.0 **** 0.06
3941 C 67.91267929715951 100.6697829830756 90.89607542912347 C 0.0 **** -0.24
3942 H 68.85667591863006 100.36682038471756 91.34908824778006 H 0.0 **** 0.06
3943 H 68.11209160807647 101.3024287387303 90.03134562884873 H 0.0 **** 0.06
3944 H 67.32238968668156 101.22408080903287 91.62574087640257 H 0.0 **** 0.06
3945 H 67.3616291581015 99.78419241337593 90.57989566337608 H 0.0 **** 0.06
3946 C 72.09408193772404 29.695106669064415 50.05670725734427 C 0.0 **** -0.24
3947 H 72.42952899430736 29.34865341009737 51.034302771501245 H 0.0 **** 0.06
3948 H 71.01586439749815 29.855409274166277 50.078653027048404 H 0.0 **** 0.06
3949 H 72.33604807524353 28.94664061802854 49.302298538527 H 0.0 **** 0.06
3950 H 72.59608259606182 30.631531178444305 49.81271531993502 H 0.0 **** 0.06
3951 C 83.04789859346536 45.69511604573384 105.34494289016516 C 0.0 **** -0.24
3952 H 83.1650888399445 44.70606033005217 105.78746948665471 H 0.0 **** 0.06
3953 H 82.36237237764931 46.28579673849103 105.95206780126816 H 0.0 **** 0.06
3954 H 82.64691375564223 45.595864208634765 104.3355069637104 H 0.0 **** 0.06
3955 H 84.01703833279305 46.19207305271999 105.3031402718436 H 0.0 **** 0.06
3956 C 51.944959532965754 68.0566013073817 9.28910502714325 C 0.0 **** -0.24
3957 H 52.99839280278985 68.17880249350699 9.539274439399634 H 0.0 **** 0.06
3958 H 51.83981162293401 67.93311794855757 8.210383814714831 H 0.0 **** 0.06
3959 H 51.38930007031951 68.93770130528841 9.6101531983511 H 0.0 **** 0.06
3960 H 51.55245698445589 67.17476145175925 9.795661834631375 H 0.0 **** 0.06
3961 C 84.16096694882586 63.4064451308773 116.41281811563941 C 0.0 **** -0.24
3962 H 83.13506039238973 63.77230968488183 116.4467209027567 H 0.0 **** 0.06
3963 H 84.41061059533783 62.937852283134106 117.36549562854694 H 0.0 **** 0.06
3964 H 84.83794227633152 64.24014655689689 116.2295428048091 H 0.0 **** 0.06
3965 H 84.25879372549846 62.67551888294577 115.6108784405717 H 0.0 **** 0.06
3966 C 8.137801039966746 62.02352351280984 69.07995097592081 C 0.0 **** -0.24
3967 H 8.967154807577856 61.45850909271068 68.65275934691445 H 0.0 **** 0.06
3968 H 7.195436686907158 61.60783622804259 68.7242066358605 H 0.0 **** 0.06
3969 H 8.21461582508033 63.06644819171911 68.77441193677205 H 0.0 **** 0.06
3970 H 8.177763299239729 61.95954795499873 70.16756384073031 H 0.0 **** 0.06
3971 C 101.85256773134853 78.2834692877154 41.5914983203655 C 0.0 **** -0.24
3972 H 102.78717748246291 78.29188073650516 41.0306485804022 H 0.0 **** 0.06
3973 H 101.62524765051649 77.26263029628944 41.902226553071 H 0.0 **** 0.06
3974 H 101.04728040098246 78.65992539246159 40.96081481960374 H 0.0 **** 0.06
3975 H 101.95241339956328 78.91783518607349 42.472216956455895 H 0.0 **** 0.06
3976 C 56.346664336828724 101.5747447647625 96.91346662569168 C 0.0 **** -0.24
3977 H 56.83639217270104 101.49201144577421 97.88367093738782 H 0.0 **** 0.06
3978 H 55.45363257337547 100.94918081416972 96.90343511294174 H 0.0 **** 0.06
3979 H 57.03142537555556 101.24543022701823 96.13215183221948 H 0.0 **** 0.06
3980 H 56.06607025179446 102.61281993125118 96.7363523858125 H 0.0 **** 0.06
3981 C 95.68523535677426 57.99419762257145 40.796808635744725 C 0.0 **** -0.24
3982 H 95.59409930414392 58.17388753940514 41.868490202758295 H 0.0 **** 0.06
3983 H 96.7191627302488 57.74731961973953 40.55629254530784 H 0.0 **** 0.06
3984 H 95.3888393581351 58.891059701652864 40.25301880354007 H 0.0 **** 0.06
3985 H 95.03745303032684 57.16536255217375 40.51232661748932 H 0.0 **** 0.06
3986 C 85.847838200334 67.89179880462956 99.24269400715039 C 0.0 **** -0.24
3987 H 85.68831483328509 66.84341218596091 98.99329215475007 H 0.0 **** 0.06
3988 H 85.96808748661698 68.46897786189251 98.32458445169001 H 0.0 **** 0.06
3989 H 86.74721240522038 67.9872665472169 99.85098876592383 H 0.0 **** 0.06
3990 H 84.98981338399383 68.2687679143582 99.79963412694599 H 0.0 **** 0.06
3991 C 39.96600787219949 114.8673825052032 6.435518424641941 C 0.0 **** -0.24
3992 H 40.36285960964919 115.88181646741629 6.475767760002384 H 0.0 **** 0.06
3993 H 39.20249619872335 114.80649211401743 5.660574684205173 H 0.0 **** 0.06
3994 H 39.52643369459665 114.6116719597627 7.400356914727311 H 0.0 **** 0.06
3995 H 40.77306593392036 114.17131939128257 6.207652288109571 H 0.0 **** 0.06
3996 C 51.609848711316154 93.94721307839865 90.60182204186299 C 0.0 **** -0.24
3997 H 50.55745238956768 93.66555894213772 90.64552030491853 H 0.0 **** 0.06
3998 H 52.12936212525913 93.54682361263332 91.47232514385638 H 0.0 **** 0.06
3999 H 51.69562947678752 95.03345671630362 90.59434247406375 H 0.0 **** 0.06
4000 H 52.056842580907215 93.54133099481038 89.69332279029135 H 0.0 **** 0.06
4001 C 56.58124040266338 38.56929532340206 73.50951232805934 C 0.0 **** -0.24
4002 H 57.48030812327795 39.05483864054301 73.88871211233712 H 0.0 **** 0.06
4003 H 56.58690173649035 38.594041501603925 72.41998255666036 H 0.0 **** 0.06
4004 H 55.70056727228709 39.0948164441736 73.88084782159265 H 0.0 **** 0.06
4005 H 56.557031859338906 37.53418468805489 73.84972618681164 H 0.0 **** 0.06
4006 C 5.389151043698888 35.14759633075194 118.29967936056168 C 0.0 **** -0.24
4007 H 5.379653428414542 35.8283407272034 119.15101739072125 H 0.0 **** 0.06
4008 H 5.325054514082353 35.721992107789724 117.3744702979649 H 0.0 **** 0.06
4009 H 4.53747387433441 34.47128398203182 118.366687755702 H 0.0 **** 0.06
4010 H 6.313386535120799 34.570808317828295 118.30566644659066 H 0.0 **** 0.06
4011 C 111.34123967876658 19.161006350228575 76.31162285829473 C 0.0 **** -0.24
4012 H 110.45755555616546 19.796430670530725 76.25883237087487 H 0.0 **** 0.06
4013 H 112.0035790609258 19.388526757157337 75.47678363049684 H 0.0 **** 0.06
4014 H 111.03913686218064 18.114714564269576 76.2617532468094 H 0.0 **** 0.06
4015 H 111.86345059518837 19.34385453086756 77.250917215208 H 0.0 **** 0.06
4016 C 60.99461726725246 86.06644899025261 100.43421489968065 C 0.0 **** -0.24
4017 H 60.85785964331807 85.00358256181482 100.63254254402884 H 0.0 **** 0.06
4018 H 60.72518118679458 86.6382720721752 101.3227294946035 H 0.0 **** 0.06
4019 H 60.3560059187833 86.36483179898079 99.60254559078894 H 0.0 **** 0.06
4020 H 62.035933462241736 86.25787599775035 100.17959612955511 H 0.0 **** 0.06
4021 C 104.06714394692824 74.29156962413825 87.63268427614298 C 0.0 **** -0.24
4022 H 103.15725263280555 74.8204663256449 87.35113574633613 H 0.0 **** 0.06
4023 H 103.89786492175676 73.74371266663903 88.55970743615626 H 0.0 **** 0.06
4024 H 104.87488736296933 75.00992353951705 87.7771725762916 H 0.0 **** 0.06
4025 H 104.34017144826421 73.59283291443904 86.84130470903051 H 0.0 **** 0.06
4026 C 112.22007619418167 70.83358710383908 5.37249778544626 C 0.0 **** -0.24
4027 H 112.43501385887117 70.9824977312793 6.430687275381979 H 0.0 **** 0.06
4028 H 112.62042252408287 71.66983147644888 4.799282522336533 H 0.0 **** 0.06
4029 H 111.14132572105495 70.77523737267609 5.226417961466856 H 0.0 **** 0.06
4030 H 112.68252367448258 69.90538297745647 5.035840637338708 H 0.0 **** 0.06
4031 C 90.90123088694435 18.584263632753604 60.91823432303942 C 0.0 **** -0.24
4032 H 91.22003473467367 18.37252522431509 61.939407956824276 H 0.0 **** 0.06
4033 H 91.77450892263494 18.61498548176121 60.26537422462881 H 0.0 **** 0.06
4034 H 90.39092029737441 19.546642081926183 60.88909066016809 H 0.0 **** 0.06
4035 H 90.22272024095662 17.801302591461265 60.579965399844404 H 0.0 **** 0.06
4036 C 59.39294240074479 95.7778574522257 58.26109353325046 C 0.0 **** -0.24
4037 H 60.185028728789725 95.36416257276323 58.885214004783506 H 0.0 **** 0.06
4038 H 59.57141985913206 95.50613284081271 57.220217863126265 H 0.0 **** 0.06
4039 H 59.38560815942487 96.86412772128682 58.357539129654924 H 0.0 **** 0.06
4040 H 58.430993542412885 95.37882752534142 58.58242523780956 H 0.0 **** 0.06
4041 C 16.872729827274213 98.52823428958223 22.332764364682248 C 0.0 **** -0.24
4042 H 16.155241044844633 99.31449083143207 22.096522735134798 H 0.0 **** 0.06
4043 H 16.555367308898784 97.59486881796138 21.866206133294533 H 0.0 **** 0.06
4044 H 16.92357457360904 98.39626220607781 23.412792907915502 H 0.0 **** 0.06
4045 H 17.855330934949876 98.80875442799925 21.954137830644814 H 0.0 **** 0.06
4046 C 2.5884359562481336 91.34967622433976 21.762420681588708 C 0.0 **** -0.24
4047 H 2.344319192250609 90.47124363762401 21.166193640431203 H 0.0 **** 0.06
4048 H 2.27028531515937 92.24788881603138 21.232573612647627 H 0.0 **** 0.06
4049 H 3.6661839453366554 91.38842730644626 21.928313233961518 H 0.0 **** 0.06
4050 H 2.0762050227951505 91.29172491756856 22.722279330285232 H 0.0 **** 0.06
4051 C 72.9963172643784 98.79514704587109 58.52928352215011 C 0.0 **** -0.24
4052 H 73.59475381174795 98.31591213189103 59.30429718970609 H 0.0 **** 0.06
4053 H 72.6988530769089 99.78904265924763 58.86191856116372 H 0.0 **** 0.06
4054 H 72.10632567944864 98.19520306214096 58.336128568696296 H 0.0 **** 0.06
4055 H 73.5846749917495 98.87741368659246 57.6154701128805 H 0.0 **** 0.06
4056 C 114.78217731482557 82.24207977952915 96.6985725498871 C 0.0 **** -0.24
4057 H 115.57858974172694 82.32134643374934 95.95869782717696 H 0.0 **** 0.06
4058 H 114.80047643248162 83.11836176226444 97.34732801691158 H 0.0 **** 0.06
4059 H 114.92981916221657 81.34336505092944 97.29701157118166 H 0.0 **** 0.06
4060 H 113.8182213224511 82.18644195581328 96.19128866801682 H 0.0 **** 0.06
4061 C 62.21459166330831 96.19273261043386 55.31065938011352 C 0.0 **** -0.24
4062 H 62.891294347161505 96.87890920906091 55.820369836881525 H 0.0 **** 0.06
4063 H 62.16806892354123 96.44781839568279 54.25152270392914 H 0.0 **** 0.06
4064 H 61.21865843049173 96.27354104060484 55.74823070777279 H 0.0 **** 0.06
4065 H 62.57848577195054 95.17212500862203 55.42406440987105 H 0.0 **** 0.06
4066 C 36.99380450577553 70.37104270710023 45.66475656255119 C 0.0 **** -0.24
4067 H 36.35010055768862 71.16670022091913 45.290536199787 H 0.0 **** 0.06
4068 H 36.8418059422051 69.47046554537235 45.06856039606865 H 0.0 **** 0.06
4069 H 36.746776374831086 70.16379119247469 46.70580337276624 H 0.0 **** 0.06
4070 H 38.0359808614175 70.68299001380402 45.59250060319883 H 0.0 **** 0.06
4071 C 5.821721171981039 52.525422990650355 27.430648610404063 C 0.0 **** -0.24
4072 H 5.985988914577149 53.00763212784548 28.39467561738462 H 0.0 **** 0.06
4073 H 6.131626127325745 51.481993070086205 27.489125057307575 H 0.0 **** 0.06
4074 H 6.406212894581131 53.03629877345119 26.6650919730059 H 0.0 **** 0.06
4075 H 4.763264425217443 52.57716534763705 27.174704012615706 H 0.0 **** 0.06
4076 C 49.795087692525215 30.018076369691975 103.54919364812076 C 0.0 **** -0.24
4077 H 50.18290557658048 31.026430222121462 103.40257032100118 H 0.0 **** 0.06
4078 H 48.9001995881201 30.059341718673636 104.17019769396418 H 0.0 **** 0.06
4079 H 50.55184355133875 29.40756665458509 104.04221702369759 H 0.0 **** 0.06
4080 H 49.54691999859031 29.579535955697004 102.58239961675827 H 0.0 **** 0.06
4081 C 75.67782107721752 39.279206283739114 49.16951437415631 C 0.0 **** -0.24
4082 H 76.50333482171783 39.16921448130287 49.872297693216964 H 0.0 **** 0.06
4083 H 74.78360430320231 39.59721351970475 49.70477064767235 H 0.0 **** 0.06
4084 H 75.48790862622744 38.32383024985117 48.67995897806382 H 0.0 **** 0.06
4085 H 75.93753021924948 40.026655246770304 48.41884009825543 H 0.0 **** 0.06
4086 C 51.326477893459895 116.11472528374114 67.69159711117581 C 0.0 **** -0.24
4087 H 51.70434624466807 116.10397732622044 66.66919427181088 H 0.0 **** 0.06
4088 H 50.58566342664108 115.32427006779795 67.81402699539788 H 0.0 **** 0.06
4089 H 50.86576235664134 117.08078253027858 67.89812353618092 H 0.0 **** 0.06
4090 H 52.15184931725432 115.94884867537996 68.3848666167473 H 0.0 **** 0.06
4091 C 28.291470015917994 41.13176013656684 84.97941453614402 C 0.0 **** -0.24
4092 H 28.57764911240976 42.17827753184595 85.09033573044903 H 0.0 **** 0.06
4093 H 27.4522341968879 41.05674018897672 84.28698844431884 H 0.0 **** 0.06
4094 H 27.99906754010545 40.73120319168942 85.95015008470094 H 0.0 **** 0.06
4095 H 29.135660060830887 40.563706513710656 84.5904200190879 H 0.0 **** 0.06
4096 C 108.9335475892124 66.81695503687354 11.063883438211747 C 0.0 **** -0.24
4097 H 108.07762213444292 66.26730477107719 10.67415573441734 H 0.0 **** 0.06
4098 H 109.31998263863082 66.3079930101575 11.947815150095153 H 0.0 **** 0.06
4099 H 108.62531638052673 67.82726037410629 11.331792343270351 H 0.0 **** 0.06
4100 H 109.712100490729 66.86497210706167 10.302244852291466 H 0.0 **** 0.06
4101 C 11.522707232159334 59.04813733796061 115.65076496803586 C 0.0 **** -0.24
4102 H 12.588165691932545 59.20229811441283 115.82360980614904 H 0.0 **** 0.06
4103 H 11.244647381404604 59.48382808731327 114.69078064767744 H 0.0 **** 0.06
4104 H 10.952691892038686 59.52791588446894 116.44589111045505 H 0.0 **** 0.06
4105 H 11.30651070152335 57.97984032503149 115.64143112644572 H 0.0 **** 0.06
4106 C 37.627631632759886 62.43342601777584 77.02424811261554 C 0.0 **** -0.24
4107 H 37.57346709276442 61.70056336829217 77.82898476563906 H 0.0 **** 0.06
4108 H 37.641335743064296 61.91718319270209 76.06372524345261 H 0.0 **** 0.06
4109 H 38.53784335984205 63.023909554171134 77.13219446826977 H 0.0 **** 0.06
4110 H 36.75997431610905 63.09085458846712 77.07165040014922 H 0.0 **** 0.06
4111 C 8.286393933110418 62.523580742206406 74.5300914148981 C 0.0 **** -0.24
4112 H 8.063995683137733 61.79213757881581 75.30711489855508 H 0.0 **** 0.06
4113 H 8.877550894268609 62.05153642810754 73.74574127204016 H 0.0 **** 0.06
4114 H 8.848476419859736 63.351710242964174 74.961766496281 H 0.0 **** 0.06
4115 H 7.353895491173262 62.89871170057302 74.10753250559063 H 0.0 **** 0.06
4116 C 1.7294918609913328 102.58782715630494 62.59078227998788 C 0.0 **** -0.24
4117 H 1.187789658030196 103.52856156558215 62.485249588104125 H 0.0 **** 0.06
4118 H 1.2309030993323322 101.96294568276537 63.331939467324105 H 0.0 **** 0.06
4119 H 2.7498499114241532 102.7913182111879 62.91352571794681 H 0.0 **** 0.06
4120 H 1.747585879754702 102.06958674115162 61.631781197620796 H 0.0 **** 0.06
4121 C 87.41508127708943 27.609410863610492 62.244922812872574 C 0.0 **** -0.24
4122 H 86.73981226310516 27.02233653855879 62.86637433254043 H 0.0 **** 0.06
4123 H 88.40003921065866 27.645877150580702 62.7130539863434 H 0.0 **** 0.06
4124 H 87.02459920471745 28.62223671228199 62.14094599206592 H 0.0 **** 0.06
4125 H 87.49740002306356 27.148679274531077 61.26117817118592 H 0.0 **** 0.06
4126 C 113.32142589309433 102.63202796274845 18.95109967513061 C 0.0 **** -0.24
4127 H 113.70753562249399 102.21811440892219 18.020068867597 H 0.0 **** 0.06
4128 H 112.23211888610166 102.65225888682806 18.91553940399684 H 0.0 **** 0.06
4129 H 113.70001633938142 103.6450098521816 19.083566542469047 H 0.0 **** 0.06
4130 H 113.6457573898578 102.0113514608297 19.786237577930933 H 0.0 **** 0.06
4131 C 65.83655181084123 46.38283024070438 7.309831350715939 C 0.0 **** -0.24
4132 H 66.54089374433866 46.119887337900906 6.520444211608805 H 0.0 **** 0.06
4133 H 64.85149894142114 45.98460765324512 7.065368228974421 H 0.0 **** 0.06
4134 H 65.77910310281916 47.46769670049562 7.397922061519878 H 0.0 **** 0.06
4135 H 66.17552462605087 45.95804678952871 8.255182118307417 H 0.0 **** 0.06
4136 C 73.73374781000132 43.77381346787834 48.18497844150528 C 0.0 **** -0.24
4137 H 74.310238396209 43.37569780792798 47.349841263783446 H 0.0 **** 0.06
4138 H 72.91826531782749 44.38782962928889 47.80247087087159 H 0.0 **** 0.06
4139 H 74.38171318930097 44.3812907688106 48.816512876921706 H 0.0 **** 0.06
4140 H 73.32495757748052 42.94933537958494 48.76942862554131 H 0.0 **** 0.06
4141 C 106.64433369482168 20.057807821590075 81.73747379067086 C 0.0 **** -0.24
4142 H 107.50645832375909 19.679440283291513 82.28696420412439 H 0.0 **** 0.06
4143 H 106.96911590834995 20.43741641964624 80.76865368306215 H 0.0 **** 0.06
4144 H 106.17615142444848 20.86239856745874 82.30542600943284 H 0.0 **** 0.06
4145 H 105.92534201751553 19.251645290242664 81.59020011461723 H 0.0 **** 0.06
4146 C 115.41959220455963 106.69554754551385 61.106250793869556 C 0.0 **** -0.24
4147 H 114.35782629106383 106.58021243194509 60.89060648011115 H 0.0 **** 0.06
4148 H 115.54504833216726 107.05366283204339 62.129550822221596 H 0.0 **** 0.06
4149 H 115.85473019684161 107.41550715499179 60.41305770133615 H 0.0 **** 0.06
4150 H 115.91973686262298 105.73334794394836 60.994367641845066 H 0.0 **** 0.06
4151 C 96.19366030060516 53.05147204868268 93.48971645822641 C 0.0 **** -0.24
4152 H 95.4446385368463 52.448403613080814 94.00320496421512 H 0.0 **** 0.06
4153 H 96.44541346690826 52.58414773907833 92.53698408119422 H 0.0 **** 0.06
4154 H 97.08822555631505 53.12228211657305 94.10844701830109 H 0.0 **** 0.06
4155 H 95.79567697127675 54.05049235357245 93.3106905062669 H 0.0 **** 0.06
4156 C 64.41577809420713 57.23698487099008 58.306179461552354 C 0.0 **** -0.24
4157 H 64.54891438475246 58.045035654127865 59.026022689449015 H 0.0 **** 0.06
4158 H 65.26281414799544 57.218013270489756 57.62036565652303 H 0.0 **** 0.06
4159 H 63.49578597606516 57.400132292631675 57.74455413314161 H 0.0 **** 0.06
4160 H 64.35364268850748 56.28625332477322 58.835998589671995 H 0.0 **** 0.06
4161 C 29.85020074082825 67.9653035810162 112.69184588297284 C 0.0 **** -0.24
4162 H 29.96776113834337 68.68934399757691 113.49689276566798 H 0.0 **** 0.06
4163 H 29.044902463751015 67.27329404364906 112.94020270416226 H 0.0 **** 0.06
4164 H 30.77954716297843 67.41006640439153 112.56351625112922 H 0.0 **** 0.06
4165 H 29.607905914205908 68.4872925530502 111.76655443977842 H 0.0 **** 0.06
4166 C 13.706916623637568 38.25261984999732 4.7231895832563655 C 0.0 **** -0.24
4167 H 13.643321562426223 38.334576503143694 5.808251031017676 H 0.0 **** 0.06
4168 H 14.69879454629421 38.56086576389232 4.392574679263749 H 0.0 **** 0.06
4169 H 12.954712905263733 38.89649888747874 4.266062693041288 H 0.0 **** 0.06
4170 H 13.52886811884568 37.218715564139615 4.426170606835347 H 0.0 **** 0.06
4171 C 97.44110156909224 109.83577866971643 96.43027501070884 C 0.0 **** -0.24
4172 H 97.89836254681745 109.38956539189238 97.31290665937408 H 0.0 **** 0.06
4173 H 96.97285808958421 110.78129877093497 96.70345688929305 H 0.0 **** 0.06
4174 H 96.68633539386857 109.1587117767626 96.03071276112476 H 0.0 **** 0.06
4175 H 98.20677251640075 110.01406271613487 95.67533503905722 H 0.0 **** 0.06
4176 C 4.952974263480417 58.52280692362439 11.52646705724618 C 0.0 **** -0.24
4177 H 4.914437332545663 57.64846992586217 12.177007102141772 H 0.0 **** 0.06
4178 H 4.046866402115855 58.56646001268638 10.922330061323592 H 0.0 **** 0.06
4179 H 5.822923861853036 58.45001866154871 10.873535090169213 H 0.0 **** 0.06
4180 H 5.029419235305047 59.423962041434095 12.135133802311472 H 0.0 **** 0.06
4181 C 57.882746441261496 18.183777714457847 61.564639155538316 C 0.0 **** -0.24
4182 H 57.94223008576085 18.446553523832108 62.62134119681494 H 0.0 **** 0.06
4183 H 56.835881692599266 18.09729578142924 61.27041857182101 H 0.0 **** 0.06
4184 H 58.38757341313664 17.232361155131372 61.39779846722726 H 0.0 **** 0.06
4185 H 58.36504557860666 18.959985221665534 60.97032439897893 H 0.0 **** 0.06
4186 C 86.99131441972611 88.4753857660474 106.97117043864418 C 0.0 **** -0.24
4187 H 87.6474727595729 88.28678856252716 107.82053423800502 H 0.0 **** 0.06
4188 H 87.340800731316 87.90822656700928 106.108213687859 H 0.0 **** 0.06
4189 H 86.99955182673364 89.5393798313294 106.73479713479637 H 0.0 **** 0.06
4190 H 85.9760494891824 88.16744399568134 107.22112154184518 H 0.0 **** 0.06
4191 C 29.84708089036431 114.57090863220814 13.720682223265555 C 0.0 **** -0.24
4192 H 30.30295911284375 114.36118883559516 14.688516530519678 H 0.0 **** 0.06
4193 H 30.389229097978472 114.03723403109095 12.94030392517007 H 0.0 **** 0.06
4194 H 29.88947881391161 115.64287703319361 13.524800111388657 H 0.0 **** 0.06
4195 H 28.807096147020218 114.24515859094656 13.730791366560936 H 0.0 **** 0.06
4196 C 55.58207947410858 71.2270951075345 31.199713338629252 C 0.0 **** -0.24
4197 H 56.147531569647924 70.53755936612345 31.825908126302934 H 0.0 **** 0.06
4198 H 56.10329147114453 72.18476404600739 31.152215969096787 H 0.0 **** 0.06
4199 H 54.58914316497135 71.37476007562955 31.62466407060038 H 0.0 **** 0.06
4200 H 55.49018673899229 70.81407238469001 30.19510070921372 H 0.0 **** 0.06
4201 C 37.294407009615554 58.03919401509338 56.6806784173477 C 0.0 **** -0.24
4202 H 38.32670022627042 57.90945316951933 57.00593155844194 H 0.0 **** 0.06
4203 H 37.27682656128544 58.59788604908274 55.7444729076043 H 0.0 **** 0.06
4204 H 36.73910525867501 58.586649069811564 57.44200323179924 H 0.0 **** 0.06
4205 H 36.8367059906115 57.0615315613882 56.529081965054395 H 0.0 **** 0.06
4206 C 27.419987458882133 106.56094263424669 97.66137110507375 C 0.0 **** -0.24
4207 H 26.68313253333079 106.07782993897442 97.01909580852382 H 0.0 **** 0.06
4208 H 28.390234833785968 106.08199395319929 97.52272453124209 H 0.0 **** 0.06
4209 H 27.112943905443814 106.46598419963087 98.70193950864817 H 0.0 **** 0.06
4210 H 27.49474235422568 107.61591969122247 97.39879035632364 H 0.0 **** 0.06
4211 C 1.3367839181508856 40.136176000245975 9.37212320939787 C 0.0 **** -0.24
4212 H 0.5492804768890664 39.66484832918213 9.960423424966194 H 0.0 **** 0.06
4213 H 1.6692874633246646 41.04470156019227 9.872788949351332 H 0.0 **** 0.06
4214 H 0.9509480896727638 40.38616964637206 8.383285749632392 H 0.0 **** 0.06
4215 H 2.175313303042202 39.447029584528174 9.271067446528065 H 0.0 **** 0.06
4216 C 69.02079721676404 6.358044719838478 112.11786092700018 C 0.0 **** -0.24
4217 H 69.55045498412647 6.243479366366794 113.06347394694762 H 0.0 **** 0.06
4218 H 68.2524924254268 5.589332737500369 112.03708231871744 H 0.0 **** 0.06
4219 H 69.72624331774858 6.256139486366823 111.29223886805555 H 0.0 **** 0.06
4220 H 68.55591697153153 7.3432250340704 112.07921276729368 H 0.0 **** 0.06
4221 C 96.57502493971279 10.6644426793724 100.98384774567668 C 0.0 **** -0.24
4222 H 97.56929348825696 10.82074682194633 101.40364734523587 H 0.0 **** 0.06
4223 H 95.93480250509086 10.196538578098085 101.73202191230698 H 0.0 **** 0.06
4224 H 96.6469647013779 10.017216138047218 100.10979623651383 H 0.0 **** 0.06
4225 H 96.1505462132751 11.625566800509347 100.6911296338628 H 0.0 **** 0.06
4226 C 51.39680571257236 56.51887638270616 30.78098280118627 C 0.0 **** -0.24
4227 H 50.53410480053813 56.54727039240972 31.446730122715223 H 0.0 **** 0.06
4228 H 52.27262027302501 56.9035081633809 31.304458561772094 H 0.0 **** 0.06
4229 H 51.197561332172626 57.13391774957284 29.90303268741701 H 0.0 **** 0.06
4230 H 51.58095030634024 55.49065923194133 30.46989146756414 H 0.0 **** 0.06
4231 C 42.432523023222615 16.671786037953666 20.20562185218111 C 0.0 **** -0.24
4232 H 42.55886339394195 16.41521820547314 21.2574681485643 H 0.0 **** 0.06
4233 H 42.10423443160579 17.708412140810537 20.121719712289092 H 0.0 **** 0.06
4234 H 41.683350435922534 16.016680816093185 19.759623842971422 H 0.0 **** 0.06
4235 H 43.38158603859091 16.546983734136575 19.68499597610591 H 0.0 **** 0.06
4236 C 76.88692669691653 18.045679349438405 97.74878688455709 C 0.0 **** -0.24
4237 H 77.29725827932498 17.479981955071217 98.58563397609439 H 0.0 **** 0.06
4238 H 76.96432482650812 17.453511613967287 96.83728842842794 H 0.0 **** 0.06
4239 H 77.44528573251074 18.97385579533897 97.62856949823461 H 0.0 **** 0.06
4240 H 75.83880093412577 18.275016026506893 97.94496979360605 H 0.0 **** 0.06
4241 C 74.8467132157582 39.8006584110191 78.85696283045237 C 0.0 **** -0.24
4242 H 75.27035135470004 40.61194366800356 78.26498772338729 H 0.0 **** 0.06
4243 H 73.75896284306197 39.837551163887895 78.79775456527753 H 0.0 **** 0.06
4244 H 75.15785486842105 39.90912262496809 79.8962481568937 H 0.0 **** 0.06
4245 H 75.20021889312105 38.84570046095331 78.47023098090071 H 0.0 **** 0.06
4246 C 82.66803363418472 59.07995352285902 51.479965013319344 C 0.0 **** -0.24
4247 H 81.98190473057952 58.49355148313075 50.869386348236674 H 0.0 **** 0.06
4248 H 82.5860641201736 58.7668686163913 52.52128123167634 H 0.0 **** 0.06
4249 H 82.41487805960648 60.13723193485564 51.395951708395955 H 0.0 **** 0.06
4250 H 83.68921710259488 58.92281857577964 51.13199011446517 H 0.0 **** 0.06
4251 C 54.34591489699407 1.238887869712208 60.95618129252768 C 0.0 **** -0.24
4252 H 53.60471311320427 0.7693871865593493 60.30943822717922 H 0.0 **** 0.06
4253 H 55.32353022380807 0.7927293474157686 60.77180001640409 H 0.0 **** 0.06
4254 H 54.066194904900726 1.0846136288320096 61.9989414899811 H 0.0 **** 0.06
4255 H 54.3878989191935 2.307538369728894 60.74581253114554 H 0.0 **** 0.06
4256 C 3.3077840449927294 117.69015377629572 81.48967888872227 C 0.0 **** -0.24
4257 H 3.2658490102898554 117.73507138010109 80.40160195823418 H 0.0 **** 0.06
4258 H 3.3763062569868794 116.6500666203288 81.80792244853998 H 0.0 **** 0.06
4259 H 2.4060042693487276 118.13992871056499 81.9071982474668 H 0.0 **** 0.06
4260 H 4.182709125898668 118.23668867008661 81.84278556855324 H 0.0 **** 0.06
4261 C 44.138466100386395 96.46928724144024 104.39936011667561 C 0.0 **** -0.24
4262 H 43.81191209413196 97.3251525816977 103.80825217740744 H 0.0 **** 0.06
4263 H 44.77323295062535 95.82731746753831 103.78907707647895 H 0.0 **** 0.06
4264 H 43.26801674358155 95.90642044276174 104.73581431859384 H 0.0 **** 0.06
4265 H 44.70082927893561 96.81926252641506 105.26528479663727 H 0.0 **** 0.06
4266 C 81.70482387554392 100.40974730225417 104.43060571632842 C 0.0 **** -0.24
4267 H 81.7918370957129 100.20439729221806 105.49763085786086 H 0.0 **** 0.06
4268 H 81.47793141047924 101.46616266436087 104.28102943302554 H 0.0 **** 0.06
4269 H 80.90307259400916 99.80328281465853 104.0081529571294 H 0.0 **** 0.06
4270 H 82.64421291533918 100.16605309011624 103.93521709907705 H 0.0 **** 0.06
4271 C 74.37224032134611 9.968338686119647 103.64976454767896 C 0.0 **** -0.24
4272 H 74.57035143333556 9.31585564689182 102.79889529197715 H 0.0 **** 0.06
4273 H 74.30481094178569 9.369487890608795 104.55851128063517 H 0.0 **** 0.06
4274 H 73.43320546629226 10.497610333239344 103.49123514365351 H 0.0 **** 0.06
4275 H 75.18341047486533 10.690226846625304 103.74939933211527 H 0.0 **** 0.06
4276 C 67.2466379029226 23.63522619029021 94.43500814095384 C 0.0 **** -0.24
4277 H 67.26825144726394 23.100367667904635 95.38446787143647 H 0.0 **** 0.06
4278 H 66.69150025937728 23.050810301575723 93.70126715494024 H 0.0 **** 0.06
4279 H 68.26667758241985 23.788382330406478 94.08198428167526 H 0.0 **** 0.06
4280 H 66.76122215728427 24.601745144718166 94.5731069393434 H 0.0 **** 0.06
4281 C 79.01589774632941 24.049070616958033 51.77735096172717 C 0.0 **** -0.24
4282 H 79.7681846469429 23.521803548286584 52.364688576785355 H 0.0 **** 0.06
4283 H 78.09515696429088 24.130020340576948 52.35636582333574 H 0.0 **** 0.06
4284 H 78.81987282462299 23.496084251281502 50.85813230334527 H 0.0 **** 0.06
4285 H 79.3802341992884 25.045978558785237 51.53070742820292 H 0.0 **** 0.06
4286 C 108.64653927678617 67.5591451748474 21.324183625201492 C 0.0 **** -0.24
4287 H 109.5823873996739 67.00001643646797 21.358183644127568 H 0.0 **** 0.06
4288 H 108.57933224757195 68.09701096660132 20.379025903907014 H 0.0 **** 0.06
4289 H 108.61942606742562 68.27020113857543 22.15049344563328 H 0.0 **** 0.06
4290 H 107.80887053840866 66.86828795617714 21.41075649417623 H 0.0 **** 0.06
4291 C 72.06721608880034 52.45593624452488 44.927515784696226 C 0.0 **** -0.24
4292 H 71.41032584879915 52.40037200881147 45.7947869755107 H 0.0 **** 0.06
4293 H 72.46905351626017 51.46617263929909 44.71254320276688 H 0.0 **** 0.06
4294 H 72.88609113957031 53.14443054253411 45.135529744100126 H 0.0 **** 0.06
4295 H 71.50153700211888 52.813537527144604 44.06622189974914 H 0.0 **** 0.06
4296 C 93.83828429200668 57.23160472621847 82.55904805661487 C 0.0 **** -0.24
4297 H 94.7850876141645 57.12182353826673 82.03063618503973 H 0.0 **** 0.06
4298 H 93.23591782941767 56.334526188983084 82.41585478919893 H 0.0 **** 0.06
4299 H 93.30169083297838 58.09545057157445 82.16749684969048 H 0.0 **** 0.06
4300 H 94.03018373290683 57.37499916488698 83.6235419979713 H 0.0 **** 0.06
4301 C 112.84389013786318 58.53687282362555 48.37393311874513 C 0.0 **** -0.24
4302 H 112.99919233717895 58.623313004204256 49.4490516490888 H 0.0 **** 0.06
4303 H 111.8897533882469 58.04535976227691 48.183568866527196 H 0.0 **** 0.06
4304 H 113.65010419879184 57.948194394003984 47.936056226364144 H 0.0 **** 0.06
4305 H 112.83664915943143 59.53196800570752 47.928139704117825 H 0.0 **** 0.06
4306 C 97.12017666633938 19.908000594499576 91.44610313855642 C 0.0 **** -0.24
4307 H 97.89057669459388 19.138817026023798 91.4960929143198 H 0.0 **** 0.06
4308 H 97.07359738502504 20.30872736385698 90.43363635847976 H 0.0 **** 0.06
4309 H 97.36230404721184 20.70988912763122 92.1444137789897 H 0.0 **** 0.06
4310 H 96.15562575251411 19.47456012769538 91.71048821212622 H 0.0 **** 0.06
4311 C 77.97323795620355 84.80397617720052 1.7414519210006905 C 0.0 **** -0.24
4312 H 76.99603887105076 84.46426934176668 1.3978230506240692 H 0.0 **** 0.06
4313 H 78.2942432203437 85.65476871345732 1.1393403635316997 H 0.0 **** 0.06
4314 H 78.69577199725163 83.99408620101747 1.640618604619764 H 0.0 **** 0.06
4315 H 77.90743118740664 85.10352169994411 2.7869458044911077 H 0.0 **** 0.06
4316 C 118.62924819334097 45.15014870581546 23.18740183963257 C 0.0 **** -0.24
4317 H 118.6617924586173 44.90256752690105 24.2475333835867 H 0.0 **** 0.06
4318 H 118.24819346643272 46.16407829183279 23.06197572292541 H 0.0 **** 0.06
4319 H 117.97464111922828 44.44825677822694 22.670255923071807 H 0.0 **** 0.06
4320 H 119.63435191316076 45.08505109125177 22.768559999029094 H 0.0 **** 0.06
4321 C 52.76217914542585 85.1494389700506 53.34895275650928 C 0.0 **** -0.24
4322 H 52.808536106174586 86.23706624685457 53.30539311452685 H 0.0 **** 0.06
4323 H 52.97036200122662 84.73594934257679 52.36144180614568 H 0.0 **** 0.06
4324 H 51.76649775044257 84.84134856691432 53.66933765298529 H 0.0 **** 0.06
4325 H 53.50209768560961 84.78160626678363 54.06020113636862 H 0.0 **** 0.06
4326 C 5.562384793558062 13.63192581949329 106.61259651740929 C 0.0 **** -0.24
4327 H 4.475718110922671 13.57917899778488 106.54467103648216 H 0.0 **** 0.06
4328 H 5.99389005860834 12.688652054363615 106.27566112214282 H 0.0 **** 0.06
4329 H 5.853129462879378 13.816562708543188 107.64645931785554 H 0.0 **** 0.06
4330 H 5.927267074469476 14.444014537270846 105.98246042240851 H 0.0 **** 0.06
4331 C 33.69524928591062 73.44276750933705 106.39427368922995 C 0.0 **** -0.24
4332 H 33.03071829168192 72.71504666161724 106.86000912261659 H 0.0 **** 0.06
4333 H 33.49364150656476 73.48744886771942 105.3237553657543 H 0.0 **** 0.06
4334 H 34.732035910412776 73.14487366229639 106.55722903422452 H 0.0 **** 0.06
4335 H 33.52616008420431 74.42413522051493 106.83764467979819 H 0.0 **** 0.06
4336 C 50.66223851464554 8.859787348294674 106.79910322220817 C 0.0 **** -0.24
4337 H 50.653714464927646 9.808889135787837 106.2631305469734 H 0.0 **** 0.06
4338 H 50.16247946547429 8.981198540120147 107.7604558211024 H 0.0 **** 0.06
4339 H 51.69190335085693 8.543246043581377 106.96034340762708 H 0.0 **** 0.06
4340 H 50.138818735347684 8.106415889281493 106.20993619925358 H 0.0 **** 0.06
4341 C 20.855624796908387 109.89507659291111 97.17526498727744 C 0.0 **** -0.24
4342 H 20.927111215037073 108.8592908076055 96.8431940974333 H 0.0 **** 0.06
4343 H 21.832094173739662 110.23098824615383 97.52577112111388 H 0.0 **** 0.06
4344 H 20.13271312906035 109.96739908782195 97.9879837335609 H 0.0 **** 0.06
4345 H 20.53251289857232 110.52163650865253 96.34357876266188 H 0.0 **** 0.06
4346 C 47.2229475128031 112.24314071943941 73.06995462895654 C 0.0 **** -0.24
4347 H 46.86644807363962 111.66802357386123 73.92454575479329 H 0.0 **** 0.06
4348 H 46.38042339110619 112.49640040262268 72.4258845643698 H 0.0 **** 0.06
4349 H 47.94497781009474 111.65028301032471 72.50903795358767 H 0.0 **** 0.06
4350 H 47.699318091592204 113.15815133053775 73.42193931663837 H 0.0 **** 0.06
4351 C 65.27328824814609 35.52153113006574 87.26135572298256 C 0.0 **** -0.24
4352 H 64.7116646455157 35.187288497167 88.13386783117227 H 0.0 **** 0.06
4353 H 65.6561451825911 34.65550806411102 86.72243539281777 H 0.0 **** 0.06
4354 H 66.10582572010003 36.147728600304276 87.58356948985588 H 0.0 **** 0.06
4355 H 64.6171310531127 36.0967895227958 86.6075223064397 H 0.0 **** 0.06
4356 C 101.68192483576647 109.33834224213783 81.00421967980708 C 0.0 **** -0.24
4357 H 102.39641122791153 109.72530102180295 81.73083902542228 H 0.0 **** 0.06
4358 H 102.02467604301128 109.57709355992202 79.99697688829352 H 0.0 **** 0.06
4359 H 100.70699566810686 109.79451487453251 81.17421432733565 H 0.0 **** 0.06
4360 H 101.60182860509445 108.25677079057195 81.11494627952288 H 0.0 **** 0.06
4361 C 64.32169317566755 58.9165737354769 49.57084225525651 C 0.0 **** -0.24
4362 H 64.42172236973269 57.97972292372563 50.118634429991715 H 0.0 **** 0.06
4363 H 63.789004697705025 58.73427835586628 48.63643813166331 H 0.0 **** 0.06
4364 H 65.31145601940054 59.31808318160353 49.35359759331516 H 0.0 **** 0.06
4365 H 63.76275259976276 59.63197146246239 50.173916116887284 H 0.0 **** 0.06
4366 C 7.1468455717723565 16.48301040635539 2.361719187535158 C 0.0 **** -0.24
4367 H 7.445892069618306 15.440757923891056 2.473413097568198 H 0.0 **** 0.06
4368 H 6.208190146600337 16.650788203302227 2.8885627087735486 H 0.0 **** 0.06
4369 H 7.016679137450282 16.712110452473325 1.3042105979272378 H 0.0 **** 0.06
4370 H 7.919565849388295 17.128916935887617 2.7809026895864974 H 0.0 **** 0.06
4371 C 41.615715937722086 85.41970293752019 109.02934994397407 C 0.0 **** -0.24
4372 H 42.42315033402747 84.69336377848788 108.93157086564688 H 0.0 **** 0.06
4373 H 40.8290865114152 85.00679728032964 109.66111228109646 H 0.0 **** 0.06
4374 H 41.20977427002458 85.64529565587546 108.04339313007793 H 0.0 **** 0.06
4375 H 42.00298216922823 86.33360352285189 109.48068817826169 H 0.0 **** 0.06
4376 C 74.25551984607483 91.28630736032653 9.48633159523186 C 0.0 **** -0.24
4377 H 74.99657046696953 91.49813197415557 8.715497705343353 H 0.0 **** 0.06
4378 H 74.03171089615313 92.20136243640613 10.036190147947082 H 0.0 **** 0.06
4379 H 74.64966967739673 90.53645567152407 10.172876550510694 H 0.0 **** 0.06
4380 H 73.34513233546804 90.91025778449276 9.020575424739391 H 0.0 **** 0.06
4381 C 22.221055008731128 104.89594600703762 76.22815793711933 C 0.0 **** -0.24
4382 H 22.807226237120688 104.08277163419075 76.65763013580212 H 0.0 **** 0.06
4383 H 22.1488774372433 105.71050159753523 76.94961564366363 H 0.0 **** 0.06
4384 H 21.22128616040868 104.53413974012668 75.98754401799067 H 0.0 **** 0.06
4385 H 22.706990662077374 105.2544361812972 75.32104059612769 H 0.0 **** 0.06
4386 C 83.5137046692131 1.3571346385039949 85.89669423329565 C 0.0 **** -0.24
4387 H 84.04759250078621 2.133145748337972 85.34921816714461 H 0.0 **** 0.06
4388 H 82.80388898739284 0.8659573634343207 85.2303165528385 H 0.0 **** 0.06
4389 H 82.9762390663247 1.8066169224084465 86.73231079203151 H 0.0 **** 0.06
4390 H 84.22476562989624 0.6235656080859133 86.27489031818035 H 0.0 **** 0.06
4391 C 78.42884364788182 55.492776695673285 64.9751120421198 C 0.0 **** -0.24
4392 H 78.80033976270141 55.361682152332946 63.95902966442256 H 0.0 **** 0.06
4393 H 79.27058761125983 55.6113103816337 65.65776309757001 H 0.0 **** 0.06
4394 H 77.84635650638643 54.617936062322144 65.2646361110356 H 0.0 **** 0.06
4395 H 77.79674950239041 56.38045501074987 65.0179587753234 H 0.0 **** 0.06
4396 C 80.21018737907747 6.334467520153018 95.46499147752232 C 0.0 **** -0.24
4397 H 80.38747602118175 5.265835036400045 95.58880568673794 H 0.0 **** 0.06
4398 H 80.73015475044582 6.6873155248689855 94.573247173899 H 0.0 **** 0.06
4399 H 80.5843011765067 6.868239782058183 96.33859127444163 H 0.0 **** 0.06
4400 H 79.14091050085682 6.515891379409677 95.35819313904076 H 0.0 **** 0.06
4401 C 59.342108185507186 81.44454113385973 41.342581379748495 C 0.0 **** -0.24
4402 H 59.83412197284201 80.69018090904561 40.727645023141655 H 0.0 **** 0.06
4403 H 59.913864146919934 81.59565513989386 42.258693436017644 H 0.0 **** 0.06
4404 H 58.3358659918311 81.10863148059548 41.592503177850155 H 0.0 **** 0.06
4405 H 59.285663377334004 82.38222221173174 40.790675874844396 H 0.0 **** 0.06
4406 C 71.22258198799656 69.57167938633759 35.77027836689004 C 0.0 **** -0.24
4407 H 71.44587443104984 68.70191922703256 36.38879462888633 H 0.0 **** 0.06
4408 H 71.67034567885594 70.45917104516639 36.21752528466419 H 0.0 **** 0.06
4409 H 70.14218669042734 69.70352746101938 35.70527298261378 H 0.0 **** 0.06
4410 H 71.63148167874664 69.42145444447925 34.77136192915323 H 0.0 **** 0.06
4411 C 5.648741589920434 103.969374471738 74.04434061128319 C 0.0 **** -0.24
4412 H 5.353685787667786 103.61722555662044 73.0563645339509 H 0.0 **** 0.06
4413 H 5.109793377522095 104.88695658760659 74.2791179982409 H 0.0 **** 0.06
4414 H 6.721645906348215 104.16420568502878 74.05532968856772 H 0.0 **** 0.06
4415 H 5.411186591162249 103.20772090313093 74.78767303431863 H 0.0 **** 0.06
4416 C 0.07063992755355741 47.33315839180062 37.849953135821806 C 0.0 **** -0.24
4417 H -0.22836220388258255 46.356093388361444 38.2314178914919 H 0.0 **** 0.06
4418 H 1.1415989834992075 47.46931166993181 38.00204713662063 H 0.0 **** 0.06
4419 H -0.47538709292106773 48.1122772538846 38.38025471105189 H 0.0 **** 0.06
4420 H -0.1551157610021079 47.390820904346526 36.78471042760032 H 0.0 **** 0.06
4421 C 57.667259423787016 40.46444164202329 63.37020426634873 C 0.0 **** -0.24
4422 H 57.381025940417715 39.61047725939448 63.98513179602299 H 0.0 **** 0.06
4423 H 56.770245801009594 40.982153319454824 63.02895244156846 H 0.0 **** 0.06
4424 H 58.23614354473335 40.11744257839343 62.508497247320385 H 0.0 **** 0.06
4425 H 58.27944951425377 41.14720212316202 63.96024498136628 H 0.0 **** 0.06
4426 C 29.81022495317528 36.259665131940466 40.804645549028265 C 0.0 **** -0.24
4427 H 29.780277306552577 37.13029076507249 41.45987811937347 H 0.0 **** 0.06
4428 H 29.536112393793417 36.55872047084091 39.79205486952087 H 0.0 **** 0.06
4429 H 29.105489937466785 35.509498805799836 41.16525293694744 H 0.0 **** 0.06
4430 H 30.816158283756593 35.84099702226507 40.801702019527845 H 0.0 **** 0.06
4431 C 100.92123454368607 53.356293241512276 55.256017667203935 C 0.0 **** -0.24
4432 H 101.31471243586748 53.00468828218311 56.20977113105974 H 0.0 **** 0.06
4433 H 101.54554463181034 52.980580752882986 54.445814874685 H 0.0 **** 0.06
4434 H 100.9238088705504 54.445530666422485 55.242244930323494 H 0.0 **** 0.06
4435 H 99.90109943122744 52.99339724522093 55.1282387479059 H 0.0 **** 0.06
4436 C 88.23414391703503 8.282290304663363 1.8230560464628809 C 0.0 **** -0.24
4437 H 88.04183224819283 7.209861387208605 1.8492092275015466 H 0.0 **** 0.06
4438 H 89.27274719076294 8.45869102230003 1.5416583771144872 H 0.0 **** 0.06
4439 H 88.04686408242233 8.708428407728732 2.809421210393168 H 0.0 **** 0.06
4440 H 87.57456618442833 8.752095498184332 1.0938518030247337 H 0.0 **** 0.06
4441 C 102.72786597076586 69.6153779374749 5.72189601267003 C 0.0 **** -0.24
4442 H 101.97831613453693 69.89788372827672 6.461606855922895 H 0.0 **** 0.06
4443 H 102.48681388710352 68.63134537382962 5.319626967989528 H 0.0 **** 0.06
4444 H 103.71020324986094 69.58671667830916 6.193201181144241 H 0.0 **** 0.06
4445 H 102.73336365308904 70.34671177737519 4.913326787318855 H 0.0 **** 0.06
4446 C 78.16569280949884 91.54084561739 82.0433312590427 C 0.0 **** -0.24
4447 H 77.48373355891505 92.39025782905333 82.0540997998664 H 0.0 **** 0.06
4448 H 77.92949377319496 90.87433956979734 82.87288311235463 H 0.0 **** 0.06
4449 H 79.1910456877334 91.89753122624646 82.14461039504485 H 0.0 **** 0.06
4450 H 78.0594562502551 91.00131068005135 81.10201280320683 H 0.0 **** 0.06
4451 C 53.985156641440945 68.51671377149043 36.38982024285414 C 0.0 **** -0.24
4452 H 53.03682467174508 68.14354310286419 36.777446015927495 H 0.0 **** 0.06
4453 H 54.551205160056846 67.69027328804879 35.95954033667962 H 0.0 **** 0.06
4454 H 54.55714525789717 68.9660782187224 37.202285780385495 H 0.0 **** 0.06
4455 H 53.7935223126116 69.26623239870653 35.62260669821484 H 0.0 **** 0.06
4456 C 21.49933195693515 81.64974789030012 83.75148471916 C 0.0 **** -0.24
4457 H 21.44283864471305 80.70522960599268 84.29219190444161 H 0.0 **** 0.06
4458 H 22.543746464937186 81.88953585880779 83.54872695369247 H 0.0 **** 0.06
4459 H 21.055533326298274 82.44097248293463 84.35592330376787 H 0.0 **** 0.06
4460 H 20.956239849523314 81.56252561184803 82.81028345236038 H 0.0 **** 0.06
4461 C 11.251945943731172 39.723001694784585 30.359414954024416 C 0.0 **** -0.24
4462 H 10.203866535611894 39.92125334785615 30.137901225839805 H 0.0 **** 0.06
4463 H 11.681145238014977 40.576964323250024 30.884207683803744 H 0.0 **** 0.06
4464 H 11.79573127471464 39.557903903270045 29.428795882921385 H 0.0 **** 0.06
4465 H 11.329435534689082 38.8344433500902 30.98632326236207 H 0.0 **** 0.06
4466 C 39.85150025960053 83.44755978214701 56.73887740229077 C 0.0 **** -0.24
4467 H 39.91885427115989 83.58584465831382 57.81878360288914 H 0.0 **** 0.06
4468 H 40.249931494893474 82.46827643367257 56.47370530561608 H 0.0 **** 0.06
4469 H 40.42750274225983 84.22311082885133 56.235967698295724 H 0.0 **** 0.06
4470 H 38.8079246938608 83.51170738483947 56.43007209524524 H 0.0 **** 0.06
4471 C 113.0070645365841 3.8588355302404693 97.24858595185299 C 0.0 **** -0.24
4472 H 113.3632305856355 4.761602182018322 96.7523867132241 H 0.0 **** 0.06
4473 H 112.41389696419702 3.2692688852955882 96.54903823188423 H 0.0 **** 0.06
4474 H 112.39168834312102 4.134077894786486 98.10513037639137 H 0.0 **** 0.06
4475 H 113.85959286882155 3.270514125215499 97.58876967941453 H 0.0 **** 0.06
4476 C 0.0166938807174688 0.302695120685458 105.18002958712347 C 0.0 **** -0.24
4477 H 1.0934237309940613 0.4723555356061908 105.17066213220775 H 0.0 **** 0.06
4478 H -0.19295164609673066 -0.7160831835698165 104.85306914945414 H 0.0 **** 0.06
4479 H -0.46773642598833476 1.0081991857994161 104.50596224362272 H 0.0 **** 0.06
4480 H -0.3640847268580387 0.4460194652231255 106.19160775799463 H 0.0 **** 0.06
4481 C 1.5407853524273936 16.43909410893619 4.509064398134754 C 0.0 **** -0.24
4482 H 1.5051194372247085 16.989195828568285 3.5689869640469283 H 0.0 **** 0.06
4483 H 2.4972953009872736 15.921900625598226 4.59112077327346 H 0.0 **** 0.06
4484 H 0.7300921329966901 15.710423794447621 4.534356456203085 H 0.0 **** 0.06
4485 H 1.4306705195363651 17.133903933992997 5.341490120454736 H 0.0 **** 0.06
4486 C 16.494209807341463 96.84348661999661 42.73563786786622 C 0.0 **** -0.24
4487 H 16.160013436698762 96.47792746908715 43.70692253165004 H 0.0 **** 0.06
4488 H 17.582992389418592 96.90381279861936 42.7255942677765 H 0.0 **** 0.06
4489 H 16.0732622462441 97.83308427095938 42.555673273537934 H 0.0 **** 0.06
4490 H 16.160091387349496 96.1595922127591 41.95595790766953 H 0.0 **** 0.06
4491 C 108.04310773136936 27.19497795785702 115.11495016168251 C 0.0 **** -0.24
4492 H 108.32978510842906 26.173780599716707 114.86342756328737 H 0.0 **** 0.06
4493 H 108.09783875348745 27.81700981075386 114.22038625724912 H 0.0 **** 0.06
4494 H 108.72126654058457 27.586212251983483 115.87220825924187 H 0.0 **** 0.06
4495 H 107.02415191363798 27.200927657263094 115.50066398309275 H 0.0 **** 0.06
4496 C 1.086744878013647 77.25405415490164 22.142748301646748 C 0.0 **** -0.24
4497 H 1.3200875082110493 77.69966588548357 21.175625772749527 H 0.0 **** 0.06
4498 H 0.345347987333783 77.86727301841816 22.655621466083687 H 0.0 **** 0.06
4499 H 1.9940749532994513 77.19970272117496 22.744846019402843 H 0.0 **** 0.06
4500 H 0.6883299531419453 76.25032530492035 21.9940656702436 H 0.0 **** 0.06
4501 C 109.38682684388172 38.54475680940436 93.71712465735374 C 0.0 **** -0.24
4502 H 108.81373575404649 38.45187524588789 92.794004810302 H 0.0 **** 0.06
4503 H 108.87050663996325 38.01820073719992 94.51938563862433 H 0.0 **** 0.06
4504 H 109.4848101840877 39.59878660474283 93.97772981417802 H 0.0 **** 0.06
4505 H 110.3765426125589 38.111716288845145 93.57521933301183 H 0.0 **** 0.06
4506 C 61.703661913414216 51.11099918987111 11.770816754088798 C 0.0 **** -0.24
4507 H 61.67436662691755 50.72159561529418 12.788041980400948 H 0.0 **** 0.06
4508 H 61.2201663035196 50.40291531310345 11.096934823686922 H 0.0 **** 0.06
4509 H 62.73964085343261 51.2543187666987 11.466117528621638 H 0.0 **** 0.06
4510 H 61.17826620420028 52.065329796287244 11.732488949004718 H 0.0 **** 0.06
4511 C 93.85777924228037 66.88486023332734 58.986220789525646 C 0.0 **** -0.24
4512 H 94.45458736785417 67.18451776616342 58.125316069692076 H 0.0 **** 0.06
4513 H 92.82205684294885 67.18891933342928 58.83330979952029 H 0.0 **** 0.06
4514 H 94.2486545595159 67.36484799071405 59.884158364227176 H 0.0 **** 0.06
4515 H 93.90633454019388 65.80211079888767 59.1030053285146 H 0.0 **** 0.06
4516 C 99.85982187610085 92.31349605077938 32.01942515883803 C 0.0 **** -0.24
4517 H 100.2193704841541 91.9773245578181 31.04688616428149 H 0.0 **** 0.06
4518 H 99.20355915553449 91.55581188746731 32.445796392712566 H 0.0 **** 0.06
4519 H 99.30874555650553 93.24690372536918 31.899823157148717 H 0.0 **** 0.06
4520 H 100.70809386893842 92.47590531228093 32.683808619622084 H 0.0 **** 0.06
4521 C 94.17325099196262 25.694903729850736 12.470185461778044 C 0.0 **** -0.24
4522 H 93.515386999518 26.54867874052804 12.306784769603269 H 0.0 **** 0.06
4523 H 93.5985301860824 24.867641069837674 12.887173569359618 H 0.0 **** 0.06
4524 H 94.96533361654366 25.974737531603914 13.164188836378457 H 0.0 **** 0.06
4525 H 94.6133822975498 25.389473324482246 11.520353195582175 H 0.0 **** 0.06
4526 C 16.17287962307637 62.87344132784266 26.715739817426424 C 0.0 **** -0.24
4527 H 16.530092913674366 61.88657214374553 26.421271729488524 H 0.0 **** 0.06
4528 H 16.59590436495762 63.138696049005866 27.684522329175223 H 0.0 **** 0.06
4529 H 15.085734446438266 62.85995564354376 26.784891802418542 H 0.0 **** 0.06
4530 H 16.480473176654186 63.607963983306924 25.971180036553534 H 0.0 **** 0.06
4531 C 71.74478267749794 64.05177169629249 89.7048769842084 C 0.0 **** -0.24
4532 H 71.17682690864012 64.11166772151392 90.63301934998103 H 0.0 **** 0.06
4533 H 72.66930021142946 64.62016339956048 89.80721847368207 H 0.0 **** 0.06
4534 H 71.15283309801987 64.46449478253325 88.88855299112112 H 0.0 **** 0.06
4535 H 71.98054990905814 63.008559635717525 89.49061294841752 H 0.0 **** 0.06
4536 C 109.41429070900818 79.12908515925642 87.21963389371342 C 0.0 **** -0.24
4537 H 108.61035173752393 79.15173378231711 87.95611186710076 H 0.0 **** 0.06
4538 H 110.16455987914068 79.87735516810383 87.47834383065575 H 0.0 **** 0.06
4539 H 109.00847306755651 79.34612232463942 86.23180473312786 H 0.0 **** 0.06
4540 H 109.87352699301346 78.14010021135837 87.21489778324164 H 0.0 **** 0.06
4541 C 2.850976372207981 50.02203612326559 44.87328760562258 C 0.0 **** -0.24
4542 H 2.889515799525668 50.709265047685165 44.027993160900564 H 0.0 **** 0.06
4543 H 2.3074970529141297 50.487878868140456 45.69514606049603 H 0.0 **** 0.06
4544 H 3.8649667813142514 49.7853693151327 45.19541620219462 H 0.0 **** 0.06
4545 H 2.341887706984778 49.10597274407468 44.573655853892035 H 0.0 **** 0.06
4546 C 21.660460601111424 106.8028788102302 118.57691592381235 C 0.0 **** -0.24
4547 H 21.9632414142701 106.84836365500092 119.62337400672507 H 0.0 **** 0.06
4548 H 22.379144400682776 106.2055390774479 118.0165648169542 H 0.0 **** 0.06
4549 H 21.62568647721048 107.81131798214659 118.1649453508803 H 0.0 **** 0.06
4550 H 20.67299524986987 106.34685906313405 118.50479971355817 H 0.0 **** 0.06
4551 C 28.277738938884227 72.93016448865663 17.037634229115667 C 0.0 **** -0.24
4552 H 27.246316320536437 72.62800622488561 16.85756950965944 H 0.0 **** 0.06
4553 H 28.666705944186504 73.43726695024279 16.153705255944175 H 0.0 **** 0.06
4554 H 28.88367598214404 72.04794362622832 17.246016726523266 H 0.0 **** 0.06
4555 H 28.315243197494055 73.60740721045389 17.891238546606814 H 0.0 **** 0.06
4556 C 7.962905954915215 107.34438169272232 28.97784390838916 C 0.0 **** -0.24
4557 H 7.125848305565199 106.66096087656271 29.123412094385372 H 0.0 **** 0.06
4558 H 8.795672024272505 106.80597353120956 28.525449289592302 H 0.0 **** 0.06
4559 H 8.270842214409328 107.75050893949546 29.94091890050251 H 0.0 **** 0.06
4560 H 7.655836296234668 108.15859486420726 28.321361836097623 H 0.0 **** 0.06
4561 C 20.52899265521455 46.4518845398115 30.872143251582315 C 0.0 **** -0.24
4562 H 20.032284355274044 45.87289212588364 30.09317004500994 H 0.0 **** 0.06
4563 H 21.606151982662738 46.29609130043424 30.80862280639238 H 0.0 **** 0.06
4564 H 20.17142951917843 46.127347589745085 31.849441543738124 H 0.0 **** 0.06
4565 H 20.30611735537707 47.51021022248034 30.7353370409665 H 0.0 **** 0.06
4566 C 92.122619968306 69.31083001714046 32.211006071708965 C 0.0 **** -0.24
4567 H 91.73145512113706 69.1960822538336 31.200521765652866 H 0.0 **** 0.06
4568 H 92.79990880779212 70.165236299919 32.24212511000903 H 0.0 **** 0.06
4569 H 92.66209615857701 68.40817070727715 32.49682270092745 H 0.0 **** 0.06
4570 H 91.29710593476432 69.4754885212389 32.90305642576098 H 0.0 **** 0.06
4571 C 105.66946097368873 8.487540651830926 80.34646489709516 C 0.0 **** -0.24
4572 H 105.73499213479889 9.326269385106826 81.03925803063285 H 0.0 **** 0.06
4573 H 106.2169517175214 8.727596491377568 79.43421343242014 H 0.0 **** 0.06
4574 H 104.6242697971806 8.297853613387389 80.10365271051975 H 0.0 **** 0.06
4575 H 106.10317526975402 7.600337176923517 80.80889600547687 H 0.0 **** 0.06
4576 C 34.6795915598539 33.28585344958117 95.25405830298615 C 0.0 **** -0.24
4577 H 33.713594923988964 33.267363751994935 94.75011568564736 H 0.0 **** 0.06
4578 H 34.64950883567728 32.62841685176545 96.12308749275206 H 0.0 **** 0.06
4579 H 34.9011394555515 34.30339468393515 95.5758500538177 H 0.0 **** 0.06
4580 H 35.45387295451806 32.94562992507417 94.5672193257941 H 0.0 **** 0.06
4581 C 92.69427638499491 96.33004748207236 71.06154587995846 C 0.0 **** -0.24
4582 H 92.59469610456603 95.76936766476922 70.132706057306 H 0.0 **** 0.06
4583 H 92.65726823967674 95.64113508330217 71.90654160989519 H 0.0 **** 0.06
4584 H 91.87765215911313 97.04772929818364 71.14226932513347 H 0.0 **** 0.06
4585 H 93.64699980972838 96.86037260542662 71.06578357241978 H 0.0 **** 0.06
4586 C 15.174983547341384 72.12888354066706 62.70825974711479 C 0.0 **** -0.24
4587 H 14.53349870279746 72.83403736037337 63.236070137953426 H 0.0 **** 0.06
4588 H 15.841899875738818 72.67538582579238 62.04083148928952 H 0.0 **** 0.06
4589 H 14.559126977546413 71.442911948002 62.12554600589545 H 0.0 **** 0.06
4590 H 15.765047187436295 71.56451323938222 63.429127647395255 H 0.0 **** 0.06
4591 C 66.15060416263199 5.0050095742002725 64.02818461321579 C 0.0 **** -0.24
4592 H 66.93387850359227 4.961872684136495 63.27122285696205 H 0.0 **** 0.06
4593 H 66.530962892411 4.603264264462183 64.96673852474476 H 0.0 **** 0.06
4594 H 65.29546124299816 4.414007951972451 63.69863901661572 H 0.0 **** 0.06
4595 H 65.84250498228198 6.040673729510473 64.17317167367747 H 0.0 **** 0.06
4596 C 103.55482647323007 94.87547238766194 116.02185845503303 C 0.0 **** -0.24
4597 H 104.4870599045145 95.28638446651456 115.63463933452584 H 0.0 **** 0.06
4598 H 103.77497285815724 94.05131232328483 116.70020741582343 H 0.0 **** 0.06
4599 H 102.94642614527831 94.51199980172055 115.19374536766878 H 0.0 **** 0.06
4600 H 103.01109734934064 95.65289791817685 116.55817806894763 H 0.0 **** 0.06
4601 C 65.45592453482783 39.16621961431741 80.33019808211588 C 0.0 **** -0.24
4602 H 66.18401066475573 39.3591040210066 81.11822712603549 H 0.0 **** 0.06
4603 H 64.50056753984657 39.61630747311651 80.60120091860875 H 0.0 **** 0.06
4604 H 65.32899879485433 38.09044980899455 80.20854383077773 H 0.0 **** 0.06
4605 H 65.8092476069287 39.59830622616511 79.39499573991341 H 0.0 **** 0.06
4606 C 42.76571521188774 40.56739501142749 36.338950659028285 C 0.0 **** -0.24
4607 H 42.494858844139344 40.10944893338481 35.387181865667884 H 0.0 **** 0.06
4608 H 43.52516134704277 39.960880598757484 36.83165783560922 H 0.0 **** 0.06
4609 H 41.88244138408322 40.63223214090269 36.97413177108726 H 0.0 **** 0.06
4610 H 43.15885849772886 41.56867068941182 36.160205032405344 H 0.0 **** 0.06
4611 C 59.97043295718529 112.73419522984892 5.347813760331746 C 0.0 **** -0.24
4612 H 59.50675164610231 112.0713330450096 6.078275208031414 H 0.0 **** 0.06
4613 H 60.580011472904054 113.475434062278 5.86583178081321 H 0.0 **** 0.06
4614 H 59.19393865387348 113.23919419003903 4.772679641998252 H 0.0 **** 0.06
4615 H 60.59919024877197 112.15127347723606 4.676020659404628 H 0.0 **** 0.06
4616 C 109.10384406834959 118.19155171196533 46.036687656802485 C 0.0 **** -0.24
4617 H 108.60108240449097 118.91458367509034 45.394545891716405 H 0.0 **** 0.06
4618 H 109.42334881113706 118.68440486945312 46.955539180394794 H 0.0 **** 0.06
4619 H 109.9728917570749 117.7891791924128 45.518004779842926 H 0.0 **** 0.06
4620 H 108.41682928442663 117.380778140634 46.27865554635571 H 0.0 **** 0.06
4621 C 57.87215676192097 4.582025163416404 109.21972426878992 C 0.0 **** -0.24
4622 H 58.72160116769445 4.994250176419541 109.76414808944816 H 0.0 **** 0.06
4623 H 57.67776582510654 3.5657644450100747 109.56525139371007 H 0.0 **** 0.06
4624 H 58.09638990357947 4.567562960794362 108.15293753435861 H 0.0 **** 0.06
4625 H 56.992427531646065 5.201056403212419 109.39779284399006 H 0.0 **** 0.06
4626 C 76.49948329993893 20.06953874515515 74.48802356726776 C 0.0 **** -0.24
4627 H 76.03556822662856 19.656157937174402 73.5924133348733 H 0.0 **** 0.06
4628 H 77.13186338395178 20.914784988906888 74.21181181063912 H 0.0 **** 0.06
4629 H 77.10696512637563 19.3037775735501 74.97024366175182 H 0.0 **** 0.06
4630 H 75.72346624248809 20.405474508222966 75.17671241701848 H 0.0 **** 0.06
4631 C 37.655958327575235 62.91767128711422 23.383442491016808 C 0.0 **** -0.24
4632 H 37.720323625239786 63.89538666533008 23.862630773358546 H 0.0 **** 0.06
4633 H 38.30683490227702 62.89930871119515 22.509198200236938 H 0.0 **** 0.06
4634 H 36.62741983488115 62.73113693411517 23.07570228933335 H 0.0 **** 0.06
4635 H 37.970213583437015 62.14759081513927 24.087003570484967 H 0.0 **** 0.06
4636 C 26.292205194520385 72.40747300746258 61.28077088923811 C 0.0 **** -0.24
4637 H 27.35094097854069 72.36498799154114 61.5365914049664 H 0.0 **** 0.06
4638 H 25.74255436638491 72.88961902070236 62.08866859939798 H 0.0 **** 0.06
4639 H 25.912604884023516 71.39651093642183 61.13515900795835 H 0.0 **** 0.06
4640 H 26.164102795428306 72.97871978146676 60.36162213281398 H 0.0 **** 0.06
4641 C 57.86421917281917 28.226227599892326 93.72549000774572 C 0.0 **** -0.24
4642 H 58.67973362378853 28.04910662197807 94.42785743685138 H 0.0 **** 0.06
4643 H 56.9857157600695 27.663289348879132 94.04082768189485 H 0.0 **** 0.06
4644 H 58.166380625546616 27.90154506792794 92.730329609434 H 0.0 **** 0.06
4645 H 57.62790601888228 29.289826060139973 93.7050708322227 H 0.0 **** 0.06
4646 C 19.239032725582774 76.46145049320796 110.46751192420808 C 0.0 **** -0.24
4647 H 19.914388999127212 76.65702525337716 111.30055634009844 H 0.0 **** 0.06
4648 H 18.21553643621762 76.68307104596607 110.7692737891119 H 0.0 **** 0.06
4649 H 19.314363720760653 75.41244412531154 110.1782809670105 H 0.0 **** 0.06
4650 H 19.514284080264233 77.09154703298836 109.6216268117505 H 0.0 **** 0.06
4651 C 10.550929476773216 70.69251806513898 27.542345470835073 C 0.0 **** -0.24
4652 H 9.899779441635673 70.1135245350558 26.886906888157256 H 0.0 **** 0.06
4653 H 10.516243284592324 71.74321053040828 27.251985589652634 H 0.0 **** 0.06
4654 H 11.573648420344757 70.32452705473546 27.4544807687941 H 0.0 **** 0.06
4655 H 10.214244176213594 70.58904233369842 28.572860986997455 H 0.0 **** 0.06
4656 C 2.562482289726802 78.06036443819212 71.29727703469413 C 0.0 **** -0.24
4657 H 1.8471338098359098 78.20093189534293 70.48717093598981 H 0.0 **** 0.06
4658 H 2.9227346506982315 79.03212065637683 71.63661716623943 H 0.0 **** 0.06
4659 H 3.403632863229788 77.46481397974819 70.94001937479686 H 0.0 **** 0.06
4660 H 2.077670372112621 77.54292467894999 72.12540993338823 H 0.0 **** 0.06
4661 C 8.018081583254713 84.50825350124296 74.24014348835314 C 0.0 **** -0.24
4662 H 9.046087568559017 84.64085502889813 74.57609593732329 H 0.0 **** 0.06
4663 H 7.477213738462012 83.8930611091003 74.96035453943423 H 0.0 **** 0.06
4664 H 8.014433502468648 84.01737891719003 73.26750823382613 H 0.0 **** 0.06
4665 H 7.5347738427628315 85.48145594738577 74.15882835878358 H 0.0 **** 0.06
4666 C 24.55710231175385 90.7916543744036 60.14143093338524 C 0.0 **** -0.24
4667 H 25.13276583440205 91.71511233746179 60.201800222852484 H 0.0 **** 0.06
4668 H 24.689815944590435 90.34410161669868 59.15574017460733 H 0.0 **** 0.06
4669 H 23.501273837057425 91.01054905642127 60.301474462291566 H 0.0 **** 0.06
4670 H 24.904648847040704 90.0961685779454 60.90547575589633 H 0.0 **** 0.06
4671 C 57.60047323036213 18.59537746298554 25.967287229462357 C 0.0 **** -0.24
4672 H 56.961413822106636 19.178017031027366 25.304978628473037 H 0.0 **** 0.06
4673 H 57.17984812243259 18.597778054745334 26.9729155563399 H 0.0 **** 0.06
4674 H 58.59792583269342 19.034202504923826 25.98829787537437 H 0.0 **** 0.06
4675 H 57.663142218098415 17.569531489101365 25.602015687685082 H 0.0 **** 0.06
4676 C 34.127921940929056 111.44460989853633 61.977738718745066 C 0.0 **** -0.24
4677 H 34.86832000980712 110.77803591111808 61.53711949152849 H 0.0 **** 0.06
4678 H 33.64224735791177 110.94493484572769 62.81579575621888 H 0.0 **** 0.06
4679 H 33.381318207581586 111.705487754567 61.22792997345682 H 0.0 **** 0.06
4680 H 34.61970238716344 112.3516915005095 62.33036398901421 H 0.0 **** 0.06
4681 C 111.04411944088986 60.422139292872664 63.20294597653407 C 0.0 **** -0.24
4682 H 110.71678894327906 61.037388402876 62.36479393097386 H 0.0 **** 0.06
4683 H 110.17250426217541 60.021152889802 63.72186365031183 H 0.0 **** 0.06
4684 H 111.63057534889795 61.02965906398881 63.89193345259787 H 0.0 **** 0.06
4685 H 111.65644591455617 59.60029708399477 62.83178934661993 H 0.0 **** 0.06
4686 C 82.772084231669 110.09346852624078 92.33278651381522 C 0.0 **** -0.24
4687 H 82.05248194331583 109.46890848615973 91.80386322410928 H 0.0 **** 0.06
4688 H 83.60775330775198 109.47896756740488 92.66937885360377 H 0.0 **** 0.06
4689 H 82.28845221677776 110.55374130145432 93.19531402619276 H 0.0 **** 0.06
4690 H 83.1385226630874 110.87204448959635 91.66450973511672 H 0.0 **** 0.06
4691 C 3.266701680843946 7.992847392010386 65.00411144927705 C 0.0 **** -0.24
4692 H 2.3912217577000607 7.666248499266246 64.44259416900726 H 0.0 **** 0.06
4693 H 3.9345634449110722 7.145445320039602 65.15986117940233 H 0.0 **** 0.06
4694 H 2.9522705213455946 8.390826211467129 65.96832740429258 H 0.0 **** 0.06
4695 H 3.7888759898295206 8.768851564074048 64.44343047925486 H 0.0 **** 0.06
4696 C 56.58148477513052 118.50871568996742 63.45075909373469 C 0.0 **** -0.24
4697 H 55.797683672371164 118.47850424646596 64.20801578990199 H 0.0 **** 0.06
4698 H 57.45577629553557 119.02030487069892 63.854297774048575 H 0.0 **** 0.06
4699 H 56.21847262672853 119.04381319224669 62.57398584004932 H 0.0 **** 0.06
4700 H 56.85301711422454 117.49074923171179 63.169529463540925 H 0.0 **** 0.06
4701 C 76.90751683250977 79.95272343327508 33.7392957999038 C 0.0 **** -0.24
4702 H 77.64835769168252 80.47473947853786 33.13362539136318 H 0.0 **** 0.06
4703 H 77.37162478389968 79.6123600062993 34.665276442403865 H 0.0 **** 0.06
4704 H 76.52586394971868 79.09353514701468 33.18690808522223 H 0.0 **** 0.06
4705 H 76.08592375890345 80.63029418318933 33.971688292728004 H 0.0 **** 0.06
4706 C 54.42610227046197 6.594451097783718 19.22850418557769 C 0.0 **** -0.24
4707 H 54.57642551323093 5.676953113148642 19.797250110024578 H 0.0 **** 0.06
4708 H 55.31692272058316 6.803528484115347 18.63553100945478 H 0.0 **** 0.06
4709 H 54.24309135598523 7.421147840350997 19.915159185244846 H 0.0 **** 0.06
4710 H 53.56823536211975 6.4750095900552935 18.56683231999611 H 0.0 **** 0.06
4711 C 63.54371215859811 110.20298245790457 15.949102945742055 C 0.0 **** -0.24
4712 H 62.93500163359829 110.12678928182645 16.849784151365412 H 0.0 **** 0.06
4713 H 62.920452904311844 110.52305652834674 15.114498834089943 H 0.0 **** 0.06
4714 H 63.98165035146059 109.23030098558144 15.723755445852788 H 0.0 **** 0.06
4715 H 64.33983576391569 110.93083527316865 16.10922514633549 H 0.0 **** 0.06
4716 C 35.2821928055606 51.941191449459374 36.50904296467644 C 0.0 **** -0.24
4717 H 35.552788694385555 51.09104427747284 35.8832577063672 H 0.0 **** 0.06
4718 H 34.57699525929889 51.618595457968745 37.275660126700444 H 0.0 **** 0.06
4719 H 34.82146510571981 52.71350901537415 35.89217085321684 H 0.0 **** 0.06
4720 H 36.17693810396426 52.34188561486211 36.9843171403686 H 0.0 **** 0.06
4721 C 114.11131589995746 24.649507198152236 6.7640488395270495 C 0.0 **** -0.24
4722 H 113.76845421221007 23.94335029292162 6.008353259433633 H 0.0 **** 0.06
4723 H 113.63986988623317 24.41649003761796 7.7196765529415075 H 0.0 **** 0.06
4724 H 113.84361816588782 25.66180599475328 6.463396943347647 H 0.0 **** 0.06
4725 H 115.1944924328885 24.574784657429205 6.866209395853474 H 0.0 **** 0.06
4726 C 16.857468811943022 42.50138412124093 1.6802110119071756 C 0.0 **** -0.24
4727 H 16.4855818630528 41.7348393559686 1.0011368431676289 H 0.0 **** 0.06
4728 H 16.323751034760335 43.43495886153113 1.5007475383306286 H 0.0 **** 0.06
4729 H 17.923134947033986 42.65387416368162 1.5077694977655938 H 0.0 **** 0.06
4730 H 16.697638367406995 42.183030502563895 2.7104244749489084 H 0.0 **** 0.06
4731 C 102.79312685082888 52.400437081429345 42.35479443663172 C 0.0 **** -0.24
4732 H 102.40652812960039 52.11825884547838 43.33374458936865 H 0.0 **** 0.06
4733 H 102.12412694093112 52.028006299003266 41.578990334982024 H 0.0 **** 0.06
4734 H 103.78503452031296 51.969627525824706 42.21843509726753 H 0.0 **** 0.06
4735 H 102.85659134757034 53.487099913244634 42.28919124160396 H 0.0 **** 0.06
4736 C 27.592452061895926 114.86205046018318 67.92875271993415 C 0.0 **** -0.24
4737 H 28.576403552701493 114.57039483709053 68.29632318106786 H 0.0 **** 0.06
4738 H 26.902228922250174 114.02383608951546 68.03399231187399 H 0.0 **** 0.06
4739 H 27.665970107203123 115.1429044975571 66.8781359132029 H 0.0 **** 0.06
4740 H 27.22569517667563 115.7099914442033 68.50733724622461 H 0.0 **** 0.06
4741 C 58.82180611281166 1.9003768277721012 50.82633926149529 C 0.0 **** -0.24
4742 H 58.2905908043023 0.9791707881092382 50.5891595049009 H 0.0 **** 0.06
4743 H 58.88700706910214 2.014269740584375 51.90853371003749 H 0.0 **** 0.06
4744 H 58.28484541877381 2.7490074400830036 50.40346715269545 H 0.0 **** 0.06
4745 H 59.8267971548768 1.8594627194753617 50.40507607618457 H 0.0 **** 0.06
4746 C 103.62807069191882 41.07014287439836 37.80186377173274 C 0.0 **** -0.24
4747 H 103.49513876844787 41.10275711095343 36.72023536194993 H 0.0 **** 0.06
4748 H 103.3818677732668 42.042633960415856 38.22848397137403 H 0.0 **** 0.06
4749 H 104.66465174791858 40.82336543168381 38.033076274873 H 0.0 **** 0.06
4750 H 102.97180167083928 40.30992414587361 38.225461485733206 H 0.0 **** 0.06
4751 C 13.171620266771946 47.94605855913878 90.50837310076494 C 0.0 **** -0.24
4752 H 13.929457600208618 48.67950460104595 90.78193294781872 H 0.0 **** 0.06
4753 H 12.881961971705085 47.37667544902388 91.39120914436171 H 0.0 **** 0.06
4754 H 13.576357114572325 47.26822841110615 89.75552115130282 H 0.0 **** 0.06
4755 H 12.299480740434557 48.459242111054124 90.10308077872568 H 0.0 **** 0.06
4756 C 80.61424571972034 28.93817359009705 14.695357492275434 C 0.0 **** -0.24
4757 H 80.21676126551321 29.800095380923608 15.23297037478028 H 0.0 **** 0.06
4758 H 81.5033962533766 29.23449048589856 14.139902610317336 H 0.0 **** 0.06
4759 H 79.85942274659621 28.56343305193269 14.00303498124731 H 0.0 **** 0.06
4760 H 80.87420401953261 28.15483698927784 15.40717840274408 H 0.0 **** 0.06
4761 C 107.61332536301705 73.58350098466406 45.22730503097215 C 0.0 **** -0.24
4762 H 107.12127280938984 72.71129157650375 44.7975998210827 H 0.0 **** 0.06
4763 H 107.81187664439992 74.31268197844275 44.44168040703976 H 0.0 **** 0.06
4764 H 108.5540407962105 73.28004982561714 45.686970615738886 H 0.0 **** 0.06
4765 H 106.96717544198376 74.02927226525972 45.98236443973385 H 0.0 **** 0.06
4766 C 19.709192550650158 27.776684172937003 44.840543895532534 C 0.0 **** -0.24
4767 H 19.419129416912 27.937226525289752 43.801530815643304 H 0.0 **** 0.06
4768 H 18.848841321892394 27.943216866751072 45.487871577627885 H 0.0 **** 0.06
4769 H 20.505288590828428 28.4721837173105 45.10584002108314 H 0.0 **** 0.06
4770 H 20.064692803870884 26.753858768121006 44.96437570809766 H 0.0 **** 0.06
4771 C 16.479734676500982 56.53379314512043 60.60329703768343 C 0.0 **** -0.24
4772 H 16.860483745654165 55.51494643692914 60.668871841267986 H 0.0 **** 0.06
4773 H 16.85754058535656 57.11638319129139 61.4438576464421 H 0.0 **** 0.06
4774 H 15.390845882330979 56.51701465576048 60.632127033940094 H 0.0 **** 0.06
4775 H 16.812022697625423 56.98549730004876 59.66897184994832 H 0.0 **** 0.06
4776 C 6.737811875109955 51.9223368372663 9.52981314011754 C 0.0 **** -0.24
4777 H 6.462723069870449 52.96650185804017 9.380464095773988 H 0.0 **** 0.06
4778 H 7.318776648035907 51.82691831837374 10.448182848255016 H 0.0 **** 0.06
4779 H 7.335390050635212 51.5789766034978 8.68518383661825 H 0.0 **** 0.06
4780 H 5.834840502270893 51.31564720990217 9.606455396339584 H 0.0 **** 0.06
4781 C 24.884571758692942 60.85416414259792 114.18633742164326 C 0.0 **** -0.24
4782 H 24.37689873323299 61.351086184481225 115.01402591868268 H 0.0 **** 0.06
4783 H 24.6831308576524 61.39427938370796 113.26141167291121 H 0.0 **** 0.06
4784 H 24.51872407040534 59.83153432604902 114.0983757672202 H 0.0 **** 0.06
4785 H 25.958314949916428 60.842422424731545 114.37460394614854 H 0.0 **** 0.06
4786 C 114.74595050913825 37.23070771339657 1.3521556044297807 C 0.0 **** -0.24
4787 H 114.95097104630457 36.38278158348949 2.0065877984209113 H 0.0 **** 0.06
4788 H 114.01884658186748 37.889371236410824 1.8287276363117204 H 0.0 **** 0.06
4789 H 114.3431458948894 36.86957498759509 0.405536776937776 H 0.0 **** 0.06
4790 H 115.66970703058553 37.77974636624745 1.1687079695950864 H 0.0 **** 0.06
4791 C 95.30980202131289 41.29560950202318 70.74110399014384 C 0.0 **** -0.24
4792 H 96.13090917871023 41.040902169764365 71.41200028923794 H 0.0 **** 0.06
4793 H 95.25510817979443 42.379286373784055 70.6296199621093 H 0.0 **** 0.06
4794 H 94.37254421426275 40.9256486526275 71.15710442101715 H 0.0 **** 0.06
4795 H 95.48124447735788 40.83815020401022 69.76680576404453 H 0.0 **** 0.06
4796 C 53.5740684327987 83.70749900970151 45.41712134304731 C 0.0 **** -0.24
4797 H 53.989583358067534 84.07467418572762 46.355390115621105 H 0.0 **** 0.06
4798 H 52.59172976335023 83.27084024759105 45.60071738680469 H 0.0 **** 0.06
4799 H 54.23580485728553 82.95032725254094 44.99856871356988 H 0.0 **** 0.06
4800 H 53.47738347184955 84.5351119037901 44.71477993448991 H 0.0 **** 0.06
4801 C 96.43010727129837 6.571734586925956 105.82505438948169 C 0.0 **** -0.24
4802 H 95.83681138408824 7.29695381544704 106.38123024435521 H 0.0 **** 0.06
4803 H 96.97354825735971 5.934694428385569 106.52339266179837 H 0.0 **** 0.06
4804 H 97.13940800624573 7.096638922585242 105.1848329440258 H 0.0 **** 0.06
4805 H 95.77148221329318 5.958687078960679 105.21019153495553 H 0.0 **** 0.06
4806 C 88.14892333596973 104.29816016464198 22.292615417115375 C 0.0 **** -0.24
4807 H 88.82420526629176 104.50818363059477 23.123000941134293 H 0.0 **** 0.06
4808 H 88.73057170670623 104.12876406634697 21.38584545145215 H 0.0 **** 0.06
4809 H 87.48247132520436 105.14776425091048 22.14417964564282 H 0.0 **** 0.06
4810 H 87.56062762114942 103.4097329369095 22.519667645780565 H 0.0 **** 0.06
4811 C 19.79169460306531 91.11699266165863 9.08722161817056 C 0.0 **** -0.24
4812 H 19.543254135924002 92.1561383405901 9.300501009891178 H 0.0 **** 0.06
4813 H 19.16595408482101 90.75283319918424 8.272244763610516 H 0.0 **** 0.06
4814 H 19.61795653653826 90.51182989449151 9.976644263609941 H 0.0 **** 0.06
4815 H 20.84044636458404 91.04572177979156 8.799036316758574 H 0.0 **** 0.06
4816 C 35.465061138950944 31.933080758205733 40.88224204632048 C 0.0 **** -0.24
4817 H 35.682798766947286 32.33666255547786 41.8715805549445 H 0.0 **** 0.06
4818 H 36.246218824087435 32.23896104503555 40.18576122504544 H 0.0 **** 0.06
4819 H 34.50272285640784 32.313531711548904 40.538670049817995 H 0.0 **** 0.06
4820 H 35.42894069517743 30.845209011298635 40.93375811459179 H 0.0 **** 0.06
4821 C 18.849908348384417 24.72227484756604 83.00446559433465 C 0.0 **** -0.24
4822 H 18.886784158524335 23.65050743855835 82.80739096233478 H 0.0 **** 0.06
4823 H 19.278455014157373 24.926781928793957 83.98632824347331 H 0.0 **** 0.06
4824 H 17.81352536880192 25.059388448291713 82.98322144256494 H 0.0 **** 0.06
4825 H 19.41993212232279 25.25230943946002 82.24059003381288 H 0.0 **** 0.06
4826 C 87.42806237713623 57.809179883243615 46.62864417698856 C 0.0 **** -0.24
4827 H 88.04745199468658 58.70560378881899 46.66781419783479 H 0.0 **** 0.06
4828 H 86.3773210894069 58.09120084049499 46.70887888306976 H 0.0 **** 0.06
4829 H 87.69171862600882 57.148512937035946 47.45423675709878 H 0.0 **** 0.06
4830 H 87.59460360568349 57.29344803779097 45.68295276390134 H 0.0 **** 0.06
4831 C 14.405321243515232 114.83218618772551 41.15982474957795 C 0.0 **** -0.24
4832 H 13.748205911494153 115.69899625598684 41.23299810086077 H 0.0 **** 0.06
4833 H 14.758331082888958 114.73021497567849 40.13353166009772 H 0.0 **** 0.06
4834 H 13.856380545748323 113.93528462442484 41.44700287084611 H 0.0 **** 0.06
4835 H 15.257772489621516 114.96585282686806 41.82603769454457 H 0.0 **** 0.06
4836 C 40.549284077761854 14.739771681907797 42.669359210471896 C 0.0 **** -0.24
4837 H 39.69658024659316 14.567512576898778 43.325579832891464 H 0.0 **** 0.06
4838 H 41.428966046182495 14.969695258748018 43.27172906156301 H 0.0 **** 0.06
4839 H 40.33367258640402 15.577378447306273 42.00581631373768 H 0.0 **** 0.06
4840 H 40.738200152712864 13.845370775612707 42.07609006761936 H 0.0 **** 0.06
4841 C 46.964871200056024 15.17012196745327 36.6483457509936 C 0.0 **** -0.24
4842 H 47.00086033036632 14.370026113691068 35.90854374048047 H 0.0 **** 0.06
4843 H 46.26933886213057 14.89796075688733 37.4431524549276 H 0.0 **** 0.06
4844 H 46.630867282046495 16.090619194043484 36.17091750274699 H 0.0 **** 0.06
4845 H 47.95963973805311 15.318531021274794 37.0702390603841 H 0.0 **** 0.06
4846 C 8.380869035222045 51.04538201580941 44.927466975381975 C 0.0 **** -0.24
4847 H 7.908391401794329 50.298033091831115 45.565343196225086 H 0.0 **** 0.06
4848 H 7.746576243287503 51.2390021667737 44.06271994228538 H 0.0 **** 0.06
4849 H 9.350071833218376 50.67502198082275 44.592101500011864 H 0.0 **** 0.06
4850 H 8.51952170595192 51.968261816597064 45.49123990715765 H 0.0 **** 0.06
4851 C 88.52948139924624 115.20472010303007 10.356509835653327 C 0.0 **** -0.24
4852 H 89.14213027819048 115.95873649727432 9.862896460381634 H 0.0 **** 0.06
4853 H 88.24889539563651 114.43602158020069 9.635328346690955 H 0.0 **** 0.06
4854 H 87.63044973726903 115.67291811886183 10.758114487123834 H 0.0 **** 0.06
4855 H 89.09645018588867 114.75120421578318 11.169700048416786 H 0.0 **** 0.06
4856 C 67.77166938302432 88.15534544084284 12.961532519796833 C 0.0 **** -0.24
4857 H 68.62511524452069 87.63957202856932 13.403711922328256 H 0.0 **** 0.06
4858 H 67.23992538377456 88.706924675719 13.736420381035856 H 0.0 **** 0.06
4859 H 67.10139636190428 87.42465815786318 12.508846380832125 H 0.0 **** 0.06
4860 H 68.12340412510545 88.84824199445995 12.197380973429944 H 0.0 **** 0.06
4861 C 44.299085781636336 84.83819543957432 72.41140617472459 C 0.0 **** -0.24
4862 H 43.57015091790669 85.42564824884349 72.97019841274721 H 0.0 **** 0.06
4863 H 43.78067015007514 84.07444014487479 71.83083945811762 H 0.0 **** 0.06
4864 H 44.99032173931954 84.36161081487037 73.10487815198579 H 0.0 **** 0.06
4865 H 44.852167444485474 85.49351983053424 71.73801681703338 H 0.0 **** 0.06
4866 C 99.59189808519946 11.931260035090304 11.458190386963253 C 0.0 **** -0.24
4867 H 98.86805967124883 11.202940087550303 11.091269922004187 H 0.0 **** 0.06
4868 H 99.52381160001863 11.994449751108021 12.544882129362264 H 0.0 **** 0.06
4869 H 99.37905756924206 12.906602807855876 11.022553085507724 H 0.0 **** 0.06
4870 H 100.59702846312567 11.61751120890338 11.175223591659375 H 0.0 **** 0.06
4871 C 52.14199349804378 97.54613387259133 57.56400824358491 C 0.0 **** -0.24
4872 H 53.213027061234534 97.50368516606514 57.366603151866855 H 0.0 **** 0.06
4873 H 51.75169635775443 98.5121421289798 57.24233478907354 H 0.0 **** 0.06
4874 H 51.96352123711907 97.42017576271314 58.63187938457327 H 0.0 **** 0.06
4875 H 51.63950837361009 96.74990437314037 57.01495283352432 H 0.0 **** 0.06
4876 C 28.577696849486017 81.65519106823709 101.20682402217076 C 0.0 **** -0.24
4877 H 27.70983382910415 80.99906543720104 101.1468368940757 H 0.0 **** 0.06
4878 H 28.664870654472352 82.22812414901264 100.28302910498775 H 0.0 **** 0.06
4879 H 29.477413145680494 81.05610651102626 101.34897843823043 H 0.0 **** 0.06
4880 H 28.45866976868725 82.33746817570832 102.04845165138903 H 0.0 **** 0.06
4881 C 7.268742652694158 46.91792778260097 60.63064625543864 C 0.0 **** -0.24
4882 H 7.103564919164651 46.85780701039303 61.70616908256928 H 0.0 **** 0.06
4883 H 7.766113711179482 46.009734189217696 60.28800929937977 H 0.0 **** 0.06
4884 H 7.895699118460232 47.78199649054623 60.407423250190696 H 0.0 **** 0.06
4885 H 6.3107105334022755 47.02217891562865 60.12184993315754 H 0.0 **** 0.06
4886 C 64.66116565980681 78.40335706297847 53.273989731085464 C 0.0 **** -0.24
4887 H 63.812465316662525 79.0072478227572 52.95070297245104 H 0.0 **** 0.06
4888 H 65.51211708253837 79.05328768411178 53.47761543327715 H 0.0 **** 0.06
4889 H 64.92258195165897 77.69587454217896 52.487736900563334 H 0.0 **** 0.06
4890 H 64.39471974828334 77.85852466733061 54.18000785527846 H 0.0 **** 0.06
4891 C 113.61106022032746 62.4626334198191 17.669687981042472 C 0.0 **** -0.24
4892 H 113.6304634580446 63.01130521887393 16.727619306353255 H 0.0 **** 0.06
4893 H 113.30379390505513 63.13256986089817 18.47324768288178 H 0.0 **** 0.06
4894 H 114.6060013228606 62.07074108975257 17.881987769208752 H 0.0 **** 0.06
4895 H 112.90415318738536 61.636835676223285 17.593865411596102 H 0.0 **** 0.06
4896 C 77.7273845700386 48.90607307356697 91.11917154305118 C 0.0 **** -0.24
4897 H 76.85904449258123 48.975873617622256 91.77358418576497 H 0.0 **** 0.06
4898 H 78.5732769441185 48.505207233531394 91.67825407709097 H 0.0 **** 0.06
4899 H 77.97864488509788 49.89809537367216 90.74189357413309 H 0.0 **** 0.06
4900 H 77.5002839724936 48.246355333916426 90.28222390797814 H 0.0 **** 0.06
4901 C 46.37946445819176 110.43259394431763 76.4937903322284 C 0.0 **** -0.24
4902 H 47.33916184783391 109.91688349379103 76.44237720557095 H 0.0 **** 0.06
4903 H 46.00102057856469 110.39426551843633 77.51545454000734 H 0.0 **** 0.06
4904 H 45.66973642336876 109.94609137150698 75.82502138408978 H 0.0 **** 0.06
4905 H 46.50981914960772 111.47193729343462 76.19213550742535 H 0.0 **** 0.06
4906 C 54.07155447333349 96.75987735657702 91.35633877853442 C 0.0 **** -0.24
4907 H 54.73893314366924 97.58044204163318 91.62010740534669 H 0.0 **** 0.06
4908 H 53.20265410836126 96.7732870193397 92.01548064163612 H 0.0 **** 0.06
4909 H 54.59871701937209 95.81231276929688 91.46892915505637 H 0.0 **** 0.06
4910 H 53.74481649822883 96.8739973253519 90.32296301392773 H 0.0 **** 0.06
4911 C 47.870477070845595 115.20034838704134 14.388024720982639 C 0.0 **** -0.24
4912 H 47.04402515616994 114.68164580887927 13.901581021773296 H 0.0 **** 0.06
4913 H 48.69641968429676 115.30662748940908 13.684724556610007 H 0.0 **** 0.06
4914 H 48.20067877639434 114.62619604198 15.25362883307734 H 0.0 **** 0.06
4915 H 47.539519899131506 116.18730110028466 14.711656109711758 H 0.0 **** 0.06
4916 C 10.809334660841614 34.55426676193446 47.90993042816365 C 0.0 **** -0.24
4917 H 10.536246712836729 34.7267109351003 46.86857526010954 H 0.0 **** 0.06
4918 H 11.760405457154832 34.02407837189796 47.95286228299028 H 0.0 **** 0.06
4919 H 10.036236895533875 33.95573053380801 48.393429023266776 H 0.0 **** 0.06
4920 H 10.902010476124815 35.51071275108646 48.42470110310978 H 0.0 **** 0.06
4921 C 96.18843055939215 0.6232513719211159 7.717617550994092 C 0.0 **** -0.24
4922 H 95.83011462694932 0.05482898722935481 6.859230536151955 H 0.0 **** 0.06
4923 H 96.23258151288124 -0.027373488488500186 8.591592728925576 H 0.0 **** 0.06
4924 H 95.50791499834796 1.451557311157659 7.914336637550321 H 0.0 **** 0.06
4925 H 97.1833196152786 1.0136017929434704 7.504413758698604 H 0.0 **** 0.06
4926 C 106.82031390344625 91.6482615628961 45.66131151793002 C 0.0 **** -0.24
4927 H 106.58929807150233 90.62678750808274 45.35852606469345 H 0.0 **** 0.06
4928 H 107.85857231341436 91.70246599371904 45.99166290222962 H 0.0 **** 0.06
4929 H 106.16311160153242 91.94219788267336 46.47891353996744 H 0.0 **** 0.06
4930 H 106.67176291266495 92.31965258441554 44.81604397317861 H 0.0 **** 0.06
4931 C 3.1414115453676867 30.62783407854093 83.34565709987459 C 0.0 **** -0.24
4932 H 3.8196194602533975 31.183206002769815 82.6988189878823 H 0.0 **** 0.06
4933 H 2.546948158163138 29.939571834792375 82.74352171190236 H 0.0 **** 0.06
4934 H 2.480167629922967 31.3236127085665 83.86184227373542 H 0.0 **** 0.06
4935 H 3.7187584323811755 30.0640549445124 84.0788734861739 H 0.0 **** 0.06
4936 C 83.60996736073838 0.9924871372513024 23.58478063489178 C 0.0 **** -0.24
4937 H 82.54830136464929 0.9977502882396863 23.335804245156247 H 0.0 **** 0.06
4938 H 83.73669008917742 0.7076303518163058 24.6287540403898 H 0.0 **** 0.06
4939 H 84.02419323484219 1.9882787807565592 23.42628612708461 H 0.0 **** 0.06
4940 H 84.12865924095641 0.2777715603305069 22.946354516711203 H 0.0 **** 0.06
4941 C 40.02760356644245 105.67226487205036 32.59268425462011 C 0.0 **** -0.24
4942 H 40.45707898009968 105.35501426685602 33.543014459833216 H 0.0 **** 0.06
4943 H 39.49045299215993 106.61123065698902 32.7332409773212 H 0.0 **** 0.06
4944 H 39.3369912878928 104.90883094938732 32.2331165251677 H 0.0 **** 0.06
4945 H 40.824772684631654 105.81441828401736 31.863252041527346 H 0.0 **** 0.06
4946 C 21.632953245886398 19.99261735672206 13.145665819138259 C 0.0 **** -0.24
4947 H 20.65819981199226 19.78612060765547 13.58931488451725 H 0.0 **** 0.06
4948 H 21.53176852521554 20.778488164549138 12.39682716928641 H 0.0 **** 0.06
4949 H 22.015044761923036 19.08752344054447 12.67315479686468 H 0.0 **** 0.06
4950 H 22.3239594748172 20.317690354096207 13.922649367707947 H 0.0 **** 0.06
4951 C 10.550741702915339 88.22257351442263 116.58213495134633 C 0.0 **** -0.24
4952 H 11.407453513972818 88.78161470508209 116.20548471104915 H 0.0 **** 0.06
4953 H 10.811919992148606 87.75424864737928 117.53069609486454 H 0.0 **** 0.06
4954 H 10.274460071137142 87.45264766745566 115.86132342706196 H 0.0 **** 0.06
4955 H 9.71056676980007 88.901090402748 116.72917396441251 H 0.0 **** 0.06
4956 C 15.355742076747333 43.56022456023766 57.11657911293034 C 0.0 **** -0.24
4957 H 14.32208242422493 43.740696052780834 56.82129393048598 H 0.0 **** 0.06
4958 H 15.622922680981446 42.52744175624255 56.89054851093107 H 0.0 **** 0.06
4959 H 15.464286022188219 43.737647253598425 58.18585872190735 H 0.0 **** 0.06
4960 H 16.01272349058482 44.23457215420726 56.56694256474785 H 0.0 **** 0.06
4961 C 2.8963407049799805 94.02732381077436 31.319020547711574 C 0.0 **** -0.24
4962 H 2.107785390509088 94.64022353929909 30.881727691086866 H 0.0 **** 0.06
4963 H 3.066393594563392 93.15260364019545 30.6910896425334 H 0.0 **** 0.06
4964 H 2.5963367969790703 93.70656279183842 32.31604237556499 H 0.0 **** 0.06
4965 H 3.814344579579176 94.61054516453561 31.38569334838226 H 0.0 **** 0.06
4966 C 94.37286355396753 4.142144739973503 27.929305858432308 C 0.0 **** -0.24
4967 H 93.50668647258638 4.209523980726374 27.27122694428231 H 0.0 **** 0.06
4968 H 94.2698167103944 3.270648818750999 28.576239246352976 H 0.0 **** 0.06
4969 H 94.4371225961431 5.042883429221092 28.5392412009046 H 0.0 **** 0.06
4970 H 95.27773734370061 4.0448811654265455 27.32837585803543 H 0.0 **** 0.06
4971 C 27.97887266509614 59.99762839908414 24.28634893076361 C 0.0 **** -0.24
4972 H 28.53067634342802 60.0206806604458 25.22510968673157 H 0.0 **** 0.06
4973 H 27.302386063037652 60.85193864203206 24.240506353773185 H 0.0 **** 0.06
4974 H 27.401962008346395 59.07407913104482 24.22622831971188 H 0.0 **** 0.06
4975 H 28.679014457503754 60.04346821793603 23.451886360301216 H 0.0 **** 0.06
4976 C 21.09016602378665 12.080319267175497 42.60099597697479 C 0.0 **** -0.24
4977 H 22.020455347564678 12.464022130533294 43.0213738200606 H 0.0 **** 0.06
4978 H 21.103796955525866 10.991090109613822 42.62327939429963 H 0.0 **** 0.06
4979 H 20.989834156255995 12.422915184376592 41.57035529554389 H 0.0 **** 0.06
4980 H 20.248395395257432 12.44634259752118 43.18861463292933 H 0.0 **** 0.06
4981 C 43.10004062152478 115.98655032602507 118.22425024145532 C 0.0 **** -0.24
4982 H 42.22046921123018 115.39686099965316 118.48148781541978 H 0.0 **** 0.06
4983 H 43.68623914802714 116.17506834584566 119.12448571073575 H 0.0 **** 0.06
4984 H 42.7861700427319 116.93515865109707 117.78888021046573 H 0.0 **** 0.06
4985 H 43.706818474493105 115.43844946582928 117.50330595221763 H 0.0 **** 0.06
4986 C 14.779311216945093 29.691871459462867 57.39721375066699 C 0.0 **** -0.24
4987 H 14.56804128932853 29.18610958672773 56.45481439742002 H 0.0 **** 0.06
4988 H 15.439007214118622 30.54068510218874 57.21352586898149 H 0.0 **** 0.06
4989 H 15.263439269272439 28.99569888017092 58.08260369704854 H 0.0 **** 0.06
4990 H 13.846812585502114 30.044857225452724 57.83618510185235 H 0.0 **** 0.06
4991 C 21.96486641086392 111.32576151685899 13.501495763968933 C 0.0 **** -0.24
4992 H 22.295091086149398 110.30744012121097 13.706065446311214 H 0.0 **** 0.06
4993 H 22.83160434274936 111.98477049205239 13.44328799059113 H 0.0 **** 0.06
4994 H 21.305726495363274 111.66159211806786 14.30264369405208 H 0.0 **** 0.06
4995 H 21.425316154848986 111.34912602738513 12.553941927488466 H 0.0 **** 0.06
4996 C 10.341917847755752 29.888107279905654 10.907143634267584 C 0.0 **** -0.24
4997 H 11.07562443665907 29.475521703647956 11.599359157187365 H 0.0 **** 0.06
4998 H 10.64694590252057 30.891515537674167 10.608914922143015 H 0.0 **** 0.06
4999 H 9.3683871119988 29.934816021252388 11.394447162478315 H 0.0 **** 0.06
5000 H 10.276713939844484 29.250575857048005 10.025853295261498 H 0.0 **** 0.06
5001 C 14.462845172411761 58.3813263835589 47.70823506419089 C 0.0 **** -0.24
5002 H 13.564000725072276 58.7588774974287 48.19637789474163 H 0.0 **** 0.06
5003 H 15.13452414708047 59.2129559788182 47.49200550273443 H 0.0 **** 0.06
5004 H 14.189354768564328 57.88291705348968 46.77789762806509 H 0.0 **** 0.06
5005 H 14.963629431604517 57.67189514638412 48.3670924225587 H 0.0 **** 0.06
5006 C 22.44416542621653 26.983287181778422 39.607384488477 C 0.0 **** -0.24
5007 H 21.8357335711066 26.795899111262486 38.7229389415696 H 0.0 **** 0.06
5008 H 21.811910756915083 27.371458464282853 40.40646627884993 H 0.0 **** 0.06
5009 H 23.217848384451642 27.713736588521215 39.36775561060966 H 0.0 **** 0.06
5010 H 22.910787189348326 26.052812562816783 39.93184823598856 H 0.0 **** 0.06
5011 C 32.729401559053024 52.78777596789965 53.47477574581256 C 0.0 **** -0.24
5012 H 31.82423934045986 52.17892963855979 53.479591106842015 H 0.0 **** 0.06
5013 H 33.183354426894 52.75496306734612 52.48456988312276 H 0.0 **** 0.06
5014 H 33.43195851553345 52.399185000097376 54.21109719271499 H 0.0 **** 0.06
5015 H 32.47401064495675 53.81726297266956 53.72357986757313 H 0.0 **** 0.06
5016 C 59.9403168507516 85.41481679238319 54.45356510590344 C 0.0 **** -0.24
5017 H 59.685095478949904 85.49898153906878 53.39691334064264 H 0.0 **** 0.06
5018 H 60.20016310055104 86.3992087217676 54.84383177005947 H 0.0 **** 0.06
5019 H 60.79016627267461 84.74209678760639 54.56864473385741 H 0.0 **** 0.06
5020 H 59.08615149391187 85.01960962990879 55.00252353321534 H 0.0 **** 0.06
5021 C 86.07561674646365 75.18337598292686 77.10882444061579 C 0.0 **** -0.24
5022 H 86.38126960104648 74.67328846007726 78.02345919929695 H 0.0 **** 0.06
5023 H 86.90840370283789 75.19723450679862 76.40561934754277 H 0.0 **** 0.06
5024 H 85.78004216145865 76.20556720174764 77.34423752456462 H 0.0 **** 0.06
5025 H 85.23283441532172 74.65409592659574 76.66370966944513 H 0.0 **** 0.06
5026 C 60.01431380461901 30.207186935919253 26.78085930823199 C 0.0 **** -0.24
5027 H 58.9776359400031 30.526951405829834 26.89133699687718 H 0.0 **** 0.06
5028 H 60.35729942180711 29.76137515708166 27.714570344577886 H 0.0 **** 0.06
5029 H 60.636150476825094 31.069176672768094 26.53913132461853 H 0.0 **** 0.06
5030 H 60.083043073478336 29.47236533021652 25.979383792098908 H 0.0 **** 0.06
5031 C 115.5580376228715 49.04549410452279 38.51893214051444 C 0.0 **** -0.24
5032 H 114.54468698067745 48.6690367926719 38.382569079618946 H 0.0 **** 0.06
5033 H 116.2736360218214 48.283679474992056 38.21065801872308 H 0.0 **** 0.06
5034 H 115.716713552785 49.288644159556924 39.57037670429969 H 0.0 **** 0.06
5035 H 115.69763890620249 49.941873928774044 37.914160035829354 H 0.0 **** 0.06
5036 C 13.169031277096309 88.48280505385785 108.81184058838971 C 0.0 **** -0.24
5037 H 12.715444247368794 88.72243517982025 109.77341573373826 H 0.0 **** 0.06
5038 H 12.91760817801071 89.25801084904896 108.08721790317833 H 0.0 **** 0.06
5039 H 12.791827975439674 87.52165239387097 108.46202231537026 H 0.0 **** 0.06
5040 H 14.25221752604071 88.42869918952252 108.92564189466793 H 0.0 **** 0.06
5041 C 111.62402198137849 96.35500898085681 24.407812397309613 C 0.0 **** -0.24
5042 H 110.74658752495375 96.94614155896485 24.668076798140504 H 0.0 **** 0.06
5043 H 112.24830955756525 96.91804470763077 23.7147999169907 H 0.0 **** 0.06
5044 H 111.30855602106871 95.423545301317 23.93894552382497 H 0.0 **** 0.06
5045 H 112.19236849305898 96.13223379010077 25.311137398565535 H 0.0 **** 0.06
5046 C 26.699238476345293 91.40622786162288 38.934399912440284 C 0.0 **** -0.24
5047 H 26.5721680866855 90.42469775872175 38.478209912176595 H 0.0 **** 0.06
5048 H 27.678413678321256 91.46097745276364 39.41189972815192 H 0.0 **** 0.06
5049 H 25.920928023048297 91.56286851974261 39.68209248606004 H 0.0 **** 0.06
5050 H 26.626525950959184 92.17607629048817 38.16671846366887 H 0.0 **** 0.06
5051 C 43.98433984415962 109.43104422474606 60.98688501533542 C 0.0 **** -0.24
5052 H 43.86937047555992 108.56172855384185 61.634794664646506 H 0.0 **** 0.06
5053 H 43.67442969253986 110.32802690643598 61.52282654333629 H 0.0 **** 0.06
5054 H 43.36446337117519 109.30496171000269 60.09829285759122 H 0.0 **** 0.06
5055 H 45.028419400346394 109.52647773285896 60.68971526423189 H 0.0 **** 0.06
5056 C 37.92242281209023 25.305834339506276 24.985425056082335 C 0.0 **** -0.24
5057 H 38.71658015385515 26.00643975569278 25.24257425522248 H 0.0 **** 0.06
5058 H 38.27353365647632 24.628814863389266 24.206278466322033 H 0.0 **** 0.06
5059 H 37.05397233462837 25.857530819031354 24.623407899802743 H 0.0 **** 0.06
5060 H 37.64449763627832 24.730486238930638 25.86856249426694 H 0.0 **** 0.06
5061 C 22.757150260599758 9.729479625512184 40.06506819355903 C 0.0 **** -0.24
5062 H 23.699556175537225 10.147395188970037 39.71298700553848 H 0.0 **** 0.06
5063 H 21.92876997736346 10.203003047364799 39.53615197448423 H 0.0 **** 0.06
5064 H 22.65570210590397 9.910280198956311 41.135969726752904 H 0.0 **** 0.06
5065 H 22.74297320609878 8.655384884269289 39.87516512619521 H 0.0 **** 0.06
5066 C 77.65018172280028 21.882094367519187 89.78226445582237 C 0.0 **** -0.24
5067 H 78.35605907776429 21.50984947803576 90.52440827085118 H 0.0 **** 0.06
5068 H 78.0689454763797 22.76161061537246 89.29123210431447 H 0.0 **** 0.06
5069 H 76.71473080606336 22.14995979647685 90.27267878894497 H 0.0 **** 0.06
5070 H 77.46276844058588 21.106802448406654 89.03905970778533 H 0.0 **** 0.06
5071 C 80.05553037366019 111.23461109862973 20.61358241604478 C 0.0 **** -0.24
5072 H 80.58001687439881 110.66304360078959 19.848148519790584 H 0.0 **** 0.06
5073 H 80.76212919924745 111.8873405887282 21.127754542695214 H 0.0 **** 0.06
5074 H 79.60224388591237 110.55109213092436 21.331580156304256 H 0.0 **** 0.06
5075 H 79.27688498641453 111.83902568211386 20.146623068327727 H 0.0 **** 0.06
5076 C 90.13365725541613 29.43644108779432 14.724920484097538 C 0.0 **** -0.24
5077 H 89.20471870713624 29.061910885601662 15.15574169018953 H 0.0 **** 0.06
5078 H 90.90667625373561 29.45813333328107 15.49350013610956 H 0.0 **** 0.06
5079 H 89.97499761245683 30.444004254521303 14.341113076234251 H 0.0 **** 0.06
5080 H 90.44698209540658 28.781930333451612 13.912222062885064 H 0.0 **** 0.06
5081 C 63.6900160906651 8.415268031796927 3.7094241903405702 C 0.0 **** -0.24
5082 H 63.852239520072715 9.40710440375652 3.28678394937468 H 0.0 **** 0.06
5083 H 64.64450434997144 7.893952024573238 3.7881160314507127 H 0.0 **** 0.06
5084 H 63.0185027832369 7.850041833523306 3.0629384544450318 H 0.0 **** 0.06
5085 H 63.24510233321263 8.51194078634579 4.70008292627648 H 0.0 **** 0.06
5086 C 17.19348466610907 102.09256706487594 82.92947453700776 C 0.0 **** -0.24
5087 H 18.048778287759433 102.03296130759725 82.25646745028902 H 0.0 **** 0.06
5088 H 16.789378709934482 101.09324071974925 83.09265489568133 H 0.0 **** 0.06
5089 H 16.426398029936365 102.72675898468083 82.48524344569319 H 0.0 **** 0.06
5090 H 17.50923354101556 102.51732260207746 83.88254377453046 H 0.0 **** 0.06
5091 C 27.016496436638704 107.41339253910138 73.48658851353821 C 0.0 **** -0.24
5092 H 26.56813153131145 108.24211037450831 72.93745528442409 H 0.0 **** 0.06
5093 H 28.03816530712527 107.6739103661692 73.76617544484014 H 0.0 **** 0.06
5094 H 27.02860562564308 106.52380802931694 72.85589333686448 H 0.0 **** 0.06
5095 H 26.43282798842 107.21491677176076 74.38493923713855 H 0.0 **** 0.06
5096 C 52.6727778560517 98.93057410183184 53.41830210495974 C 0.0 **** -0.24
5097 H 52.215004668681686 98.41003951327494 52.57626997737143 H 0.0 **** 0.06
5098 H 52.7288616336333 98.25834989210674 54.27400283612846 H 0.0 **** 0.06
5099 H 52.06950789969491 99.80095817836161 53.677781451067766 H 0.0 **** 0.06
5100 H 53.67636681551003 99.25408778136801 53.14295751484879 H 0.0 **** 0.06
5101 C 43.08929489254229 52.862253142777625 48.16443779344597 C 0.0 **** -0.24
5102 H 42.26876954735663 52.578139929056725 48.82419038074144 H 0.0 **** 0.06
5103 H 44.0054623215838 52.37203434838185 48.492611988411156 H 0.0 **** 0.06
5104 H 43.22228794229088 53.94309939151866 48.196103787764486 H 0.0 **** 0.06
5105 H 42.85705999350417 52.55474377146715 47.14507354160101 H 0.0 **** 0.06
5106 C 62.170860027612285 109.39812342136977 8.029690327320708 C 0.0 **** -0.24
5107 H 62.888898025298026 108.59369438497566 7.869868752328529 H 0.0 **** 0.06
5108 H 62.119284901757474 110.02142597669162 7.137073673836042 H 0.0 **** 0.06
5109 H 62.48699268542675 110.00395032447541 8.87913573464094 H 0.0 **** 0.06
5110 H 61.187845298670304 108.97211496925522 8.23234633046556 H 0.0 **** 0.06
5111 C 52.95152062140659 117.91761314192499 116.04730951254419 C 0.0 **** -0.24
5112 H 53.69825315720243 118.42120356454342 115.4332600151599 H 0.0 **** 0.06
5113 H 53.43775192866792 117.15671742807831 116.65911380358128 H 0.0 **** 0.06
5114 H 52.20995691128411 117.44567196689326 115.40240767025259 H 0.0 **** 0.06
5115 H 52.46177945578296 118.64549134993524 116.6932835103859 H 0.0 **** 0.06
5116 C 68.72167008487506 26.670719034710487 102.25793466437392 C 0.0 **** -0.24
5117 H 68.3434985167076 26.178100928943934 101.36126452999872 H 0.0 **** 0.06
5118 H 69.80967556625117 26.72005295173156 102.21175220842429 H 0.0 **** 0.06
5119 H 68.42000328308671 26.10322112257026 103.13797034291395 H 0.0 **** 0.06
5120 H 68.31372622635158 27.678970848877483 102.31735321459541 H 0.0 **** 0.06
5121 C 27.729120509919824 55.82943495871302 89.01386941611415 C 0.0 **** -0.24
5122 H 26.769512778159935 56.33865161605286 88.91793694297468 H 0.0 **** 0.06
5123 H 28.021923173469702 55.80333669226525 90.06410564027027 H 0.0 **** 0.06
5124 H 28.483572448037876 56.36543519263108 88.43863681132635 H 0.0 **** 0.06
5125 H 27.638706942666374 54.81148196801314 88.63579188374544 H 0.0 **** 0.06
5126 C 23.85355433864359 22.651244897497286 116.54031250601703 C 0.0 **** -0.24
5127 H 23.80784217947877 23.45827140901349 117.27159711594837 H 0.0 **** 0.06
5128 H 23.5106697900342 21.724228030292117 117.00069553040683 H 0.0 **** 0.06
5129 H 24.88062325693835 22.52924421484938 116.19732446200642 H 0.0 **** 0.06
5130 H 23.213601674692427 22.894123508185004 115.69177661204047 H 0.0 **** 0.06
5131 C 55.764012975597716 109.81394643065404 23.294158250463298 C 0.0 **** -0.24
5132 H 56.1685289837343 110.75875991235652 23.65729714600809 H 0.0 **** 0.06
5133 H 55.82853767869482 109.78595895867849 22.206369281552146 H 0.0 **** 0.06
5134 H 54.72166560948846 109.72486062186468 23.599651680266845 H 0.0 **** 0.06
5135 H 56.3391319908907 108.98756649360473 23.71424515378626 H 0.0 **** 0.06
5136 C 103.05200335869199 89.22614754463115 59.30815626216809 C 0.0 **** -0.24
5137 H 103.13233806883542 90.30912766123373 59.399889287283294 H 0.0 **** 0.06
5138 H 103.21816471199912 88.93672656178643 58.27028030840301 H 0.0 **** 0.06
5139 H 102.05630520581181 88.90883011744785 59.61871452445927 H 0.0 **** 0.06
5140 H 103.8004498044568 88.7517029886755 59.94264569106574 H 0.0 **** 0.06
5141 C 103.5678653747693 110.96790800076894 98.7307025168179 C 0.0 **** -0.24
5142 H 103.75688065500299 111.40352920921066 99.71124363708765 H 0.0 **** 0.06
5143 H 103.34140280227209 109.9079400357221 98.84152727410358 H 0.0 **** 0.06
5144 H 104.45160979858684 111.0882235638511 98.10334649055599 H 0.0 **** 0.06
5145 H 102.72101769131433 111.47375046946848 98.26550251106752 H 0.0 **** 0.06
5146 C 44.935072249750135 90.24209424704733 109.5859169481964 C 0.0 **** -0.24
5147 H 44.786822344489735 89.669599367698 110.50173088558 H 0.0 **** 0.06
5148 H 44.052045057097075 90.14894987296478 108.95323874681176 H 0.0 **** 0.06
5149 H 45.806177177168706 89.85898019515756 109.05461817652159 H 0.0 **** 0.06
5150 H 45.09405525798866 91.29209826911091 109.83509084241484 H 0.0 **** 0.06
5151 C 47.47765501453654 89.26359835193452 24.132974484968145 C 0.0 **** -0.24
5152 H 48.42745673493346 89.06686060690072 24.630799306965343 H 0.0 **** 0.06
5153 H 47.57676306310378 90.14302586050653 23.49570492439119 H 0.0 **** 0.06
5154 H 46.70512963728066 89.44208737472547 24.880450729965972 H 0.0 **** 0.06
5155 H 47.20127975604072 88.40253065508679 23.523533122944514 H 0.0 **** 0.06
5156 C 91.69785702321317 82.24584157088012 60.14907439563542 C 0.0 **** -0.24
5157 H 91.11123615480051 81.92212486075786 61.008486393805136 H 0.0 **** 0.06
5158 H 91.98144883362608 83.29085629082272 60.275258812124044 H 0.0 **** 0.06
5159 H 91.10238989148829 82.13829729793443 59.24111578639627 H 0.0 **** 0.06
5160 H 92.59462729862835 81.63149509011987 60.06980250764999 H 0.0 **** 0.06
5161 C 105.29567554333107 78.53223675167453 74.10669609349995 C 0.0 **** -0.24
5162 H 105.99765992582573 78.37279114432818 73.28826675012161 H 0.0 **** 0.06
5163 H 104.71251682053227 79.43312425893919 73.91465912117161 H 0.0 **** 0.06
5164 H 105.84762860005804 78.64867190702682 75.04025559510237 H 0.0 **** 0.06
5165 H 104.62758643596996 77.67516879193954 74.18465737170192 H 0.0 **** 0.06
5166 C 86.22454316855908 5.252575228645981 69.68727244860884 C 0.0 **** -0.24
5167 H 85.81086284679489 4.512616279246259 69.00191128055062 H 0.0 **** 0.06
5168 H 87.30534281317256 5.122885826607728 69.75321504706548 H 0.0 **** 0.06
5169 H 85.7809986896639 5.121786100090333 70.67456272824 H 0.0 **** 0.06
5170 H 85.99996531091878 6.253560922908719 69.31856794702205 H 0.0 **** 0.06
5171 C 14.721951887543298 34.69681500628367 103.75009235559497 C 0.0 **** -0.24
5172 H 15.036311431929647 35.573318936987306 104.31733881815333 H 0.0 **** 0.06
5173 H 15.272578217976047 34.657629098713954 102.81028723235013 H 0.0 **** 0.06
5174 H 13.654216850761486 34.7609590199229 103.54328099686214 H 0.0 **** 0.06
5175 H 14.927162266421902 33.79671467701815 104.3297600869981 H 0.0 **** 0.06
5176 C 59.64814806789633 4.629645474342425 113.3925879045623 C 0.0 **** -0.24
5177 H 59.56254796394933 5.371848401258468 114.18631834523413 H 0.0 **** 0.06
5178 H 60.61767050240502 4.135597294397254 113.46130656105566 H 0.0 **** 0.06
5179 H 59.55776398530929 5.1212662779810945 112.4243429827032 H 0.0 **** 0.06
5180 H 58.8545646984372 3.890090951622474 113.49977987675561 H 0.0 **** 0.06
5181 C 57.597424742240754 43.59201647745099 82.56484516008757 C 0.0 **** -0.24
5182 H 57.27534446054363 44.54257222615699 82.98915234203042 H 0.0 **** 0.06
5183 H 57.921618802747595 43.744751083831424 81.53556390330732 H 0.0 **** 0.06
5184 H 56.766934088787586 42.88528664388362 82.58352321465748 H 0.0 **** 0.06
5185 H 58.425755271112784 43.194135588312264 83.15164575793605 H 0.0 **** 0.06
5186 C 21.20255043042988 48.340484454504974 3.458751157749134 C 0.0 **** -0.24
5187 H 22.2779868757475 48.501502611962906 3.5375687282214017 H 0.0 **** 0.06
5188 H 21.01285742503302 47.42271264278776 2.9027017012547844 H 0.0 **** 0.06
5189 H 20.745710252966774 49.18220284899297 2.9383265600571917 H 0.0 **** 0.06
5190 H 20.77421969883784 48.25578142932687 4.458021298587539 H 0.0 **** 0.06
5191 C 13.326621768750499 83.92804494702335 54.103951348423834 C 0.0 **** -0.24
5192 H 12.846535669029294 84.56337033706995 54.84847372840068 H 0.0 **** 0.06
5193 H 12.734276831215425 83.93085607799804 53.18931037872551 H 0.0 **** 0.06
5194 H 13.398747711328895 82.91032046968178 54.48716707002643 H 0.0 **** 0.06
5195 H 14.325946010143952 84.3096717779786 53.89306362882644 H 0.0 **** 0.06
5196 C 117.26833769648111 61.16035401127457 85.67968243091161 C 0.0 **** -0.24
5197 H 116.55995736280856 61.93151495571802 85.37660045457221 H 0.0 **** 0.06
5198 H 118.28466029525441 61.50580308621466 85.4911463258257 H 0.0 **** 0.06
5199 H 117.0809355662824 60.250459191773565 85.10880987390186 H 0.0 **** 0.06
5200 H 117.14599798555064 60.952222243883476 86.74304209981884 H 0.0 **** 0.06
5201 C 54.53294991166081 76.64314320362064 6.675151285334323 C 0.0 **** -0.24
5202 H 54.208120992065176 75.83356928000399 7.328545339095228 H 0.0 **** 0.06
5203 H 55.2048895054196 76.24751754511465 5.913956795683362 H 0.0 **** 0.06
5204 H 55.05384813616172 77.39785952012573 7.264202114562977 H 0.0 **** 0.06
5205 H 53.663108989011505 77.09292013313444 6.194970971533621 H 0.0 **** 0.06
5206 C 91.81463061112592 5.43489504289397 2.2864170952527694 C 0.0 **** -0.24
5207 H 92.38715439015871 5.632284059760593 1.3805839872819767 H 0.0 **** 0.06
5208 H 91.375009485259 6.3657580996373895 2.6468208909022746 H 0.0 **** 0.06
5209 H 92.47420403535699 5.024768706642874 3.0515163605418802 H 0.0 **** 0.06
5210 H 91.02212063611375 4.719978167312718 2.0680520406504623 H 0.0 **** 0.06
5211 C 51.6760758904161 104.82343597579973 92.48037061565995 C 0.0 **** -0.24
5212 H 51.115018859145636 104.06925853710635 93.03199363317316 H 0.0 **** 0.06
5213 H 52.302619699754175 105.38697200898443 93.17252784378911 H 0.0 **** 0.06
5214 H 50.98182811145057 105.50042735677533 91.98368339427216 H 0.0 **** 0.06
5215 H 52.30443304012334 104.33509000219817 91.7354806399041 H 0.0 **** 0.06
5216 C 100.3411309136099 43.2420232131436 68.9331876206461 C 0.0 **** -0.24
5217 H 100.2091709913557 42.16114987788582 68.97484025823022 H 0.0 **** 0.06
5218 H 100.57660657100595 43.61890209073428 69.92785290204512 H 0.0 **** 0.06
5219 H 99.42127906936807 43.705922986848435 68.57688835851525 H 0.0 **** 0.06
5220 H 101.15613923950349 43.482069336113966 68.2496710424962 H 0.0 **** 0.06
5221 C 86.58136159059234 0.06984268794889203 79.49787511203104 C 0.0 **** -0.24
5222 H 86.87663297249546 1.0166052344125944 79.04624913159589 H 0.0 **** 0.06
5223 H 87.40605300726457 -0.6390674790921054 79.4259446150601 H 0.0 **** 0.06
5224 H 85.71271801194754 -0.3285737296664024 78.97187761308501 H 0.0 **** 0.06
5225 H 86.32882399721194 0.22993126291555654 80.5462934491216 H 0.0 **** 0.06
5226 C 26.367451355289717 0.2890747382897132 105.70458670712023 C 0.0 **** -0.24
5227 H 27.441448853681862 0.2292449171585531 105.52892702562954 H 0.0 **** 0.06
5228 H 25.843031350757457 -0.29474097816435574 104.94645572589934 H 0.0 **** 0.06
5229 H 26.04701084928965 1.3296041452612144 105.64766540110335 H 0.0 **** 0.06
5230 H 26.13768176855129 -0.10835742142083404 106.69259688665494 H 0.0 **** 0.06
5231 C 74.7181726992439 60.43853684413895 31.412365953836428 C 0.0 **** -0.24
5232 H 75.10221686907019 61.28536247913274 30.843127849015815 H 0.0 **** 0.06
5233 H 74.49538865086328 59.615357946698765 30.732678962730716 H 0.0 **** 0.06
5234 H 73.80759655843568 60.734663617934046 31.933993832347312 H 0.0 **** 0.06
5235 H 75.4660921700673 60.118701756395154 32.13791784798181 H 0.0 **** 0.06
5236 C 59.612738586759065 22.144223447743006 101.63459643986891 C 0.0 **** -0.24
5237 H 58.69286223491963 21.562571530279538 101.71241839462758 H 0.0 **** 0.06
5238 H 59.476323696479426 23.106886048168555 102.12817856515028 H 0.0 **** 0.06
5239 H 59.852344948093844 22.3051015329761 100.58405870450164 H 0.0 **** 0.06
5240 H 60.426954805523906 21.600690728829342 102.11418138323523 H 0.0 **** 0.06
5241 C 44.90809292742131 30.812259718862833 69.77994268667089 C 0.0 **** -0.24
5242 H 45.09811988508528 30.28145089300409 68.847366532358 H 0.0 **** 0.06
5243 H 45.818975692587856 31.318504081165656 70.1013549964951 H 0.0 **** 0.06
5244 H 44.59783784492387 30.100512777328902 70.54565588759408 H 0.0 **** 0.06
5245 H 44.11852140156131 31.5464471506794 69.62595542624462 H 0.0 **** 0.06
5246 C 115.46755210791528 76.69667744847462 36.329697040755306 C 0.0 **** -0.24
5247 H 116.14779099524942 76.28147980415383 35.585263288567106 H 0.0 **** 0.06
5248 H 115.64640261692244 77.76731599491023 36.42790679411243 H 0.0 **** 0.06
5249 H 115.63872304474357 76.20962744034955 37.28881031373734 H 0.0 **** 0.06
5250 H 114.43767668692456 76.5275431034934 36.013926855243994 H 0.0 **** 0.06
5251 C 72.13358384573621 9.922615705319004 108.82235956603634 C 0.0 **** -0.24
5252 H 71.82696755953131 9.733294216531618 109.85123245208476 H 0.0 **** 0.06
5253 H 71.28966796907358 9.750610645981226 108.15458730073306 H 0.0 **** 0.06
5254 H 72.9500090908304 9.25061908692669 108.55862123175592 H 0.0 **** 0.06
5255 H 72.4677018993045 10.955549633226127 108.72813558403146 H 0.0 **** 0.06
5256 C 109.05870977157477 46.87643892455726 31.7790455175099 C 0.0 **** -0.24
5257 H 108.70441538785556 47.880000612076124 31.543261703099773 H 0.0 **** 0.06
5258 H 110.14467072694997 46.845201467874844 31.69170948302653 H 0.0 **** 0.06
5259 H 108.61709147493693 46.16276080333413 31.083255742451257 H 0.0 **** 0.06
5260 H 108.76793510774598 46.61847687017475 32.79802212127481 H 0.0 **** 0.06
5261 C 66.07454249317294 37.50203455556522 108.64273278648403 C 0.0 **** -0.24
5262 H 66.0911728690096 37.86503915462123 107.61506471570291 H 0.0 **** 0.06
5263 H 65.79496746539024 38.31674800147562 109.31131294021571 H 0.0 **** 0.06
5264 H 67.063423816983 37.13264678156588 108.9140443412644 H 0.0 **** 0.06
5265 H 65.34860582130904 36.6937042845982 108.73050914875307 H 0.0 **** 0.06
5266 C 38.304707252751136 49.45305365627232 84.70102741358568 C 0.0 **** -0.24
5267 H 38.073277293362615 50.5049812896786 84.53373127786679 H 0.0 **** 0.06
5268 H 37.40220436840246 48.85761513064156 84.56511920334256 H 0.0 **** 0.06
5269 H 38.678206499587546 49.32158422350926 85.71660295218388 H 0.0 **** 0.06
5270 H 39.06511069411427 49.131119098084625 83.98935028896076 H 0.0 **** 0.06
5271 C 23.004538354409192 18.092135614134037 50.85063312176251 C 0.0 **** -0.24
5272 H 24.086444144638335 17.986230977582373 50.934910528894804 H 0.0 **** 0.06
5273 H 22.596751674934495 17.234932865898703 50.313809025944096 H 0.0 **** 0.06
5274 H 22.77004948594663 19.007291207593322 50.307769670751654 H 0.0 **** 0.06
5275 H 22.566565471785196 18.138071094121173 51.84782882386193 H 0.0 **** 0.06
5276 C 23.947842589346465 14.901701691316426 16.72558954704101 C 0.0 **** -0.24
5277 H 24.081975625681906 14.146506580827772 15.95177097362631 H 0.0 **** 0.06
5278 H 22.89366836236269 15.174117950851958 16.788848787501593 H 0.0 **** 0.06
5279 H 24.536487901503477 15.784931413821997 16.477300337931467 H 0.0 **** 0.06
5280 H 24.277741011840476 14.502347247329713 17.68369263195501 H 0.0 **** 0.06
5281 C 46.30439827778862 37.84830424313466 91.78082944467667 C 0.0 **** -0.24
5282 H 46.127997793250195 37.69232464827837 90.71681639347884 H 0.0 **** 0.06
5283 H 46.176425108183984 36.9046462735666 92.31284089100552 H 0.0 **** 0.06
5284 H 45.593968728847145 38.580971340317646 92.16432309234142 H 0.0 **** 0.06
5285 H 47.320206716096095 38.21472185700949 91.93016442813115 H 0.0 **** 0.06
5286 C 39.56398678355765 50.68706447787085 7.646440327697746 C 0.0 **** -0.24
5287 H 39.94313286166772 49.69865378249801 7.387374502938087 H 0.0 **** 0.06
5288 H 40.34853108305006 51.428255864046974 7.495033185795307 H 0.0 **** 0.06
5289 H 39.254386766634354 50.69328136765117 8.691729174595935 H 0.0 **** 0.06
5290 H 38.71030468949894 50.9254555624683 7.013043875464234 H 0.0 **** 0.06
5291 C 18.715346495406465 25.76492370321037 58.52025431944983 C 0.0 **** -0.24
5292 H 18.16258340029256 25.414673362977254 57.649647567575755 H 0.0 **** 0.06
5293 H 19.771712511811046 25.85766775103724 58.26700151666009 H 0.0 **** 0.06
5294 H 18.598292450232464 25.05126042327953 59.3360292064217 H 0.0 **** 0.06
5295 H 18.328542411694485 26.736349864438125 58.82970615514216 H 0.0 **** 0.06
5296 C 53.65175027986271 23.668578661756314 96.4372981778912 C 0.0 **** -0.24
5297 H 53.79064832172992 24.223170950051788 97.36533335915328 H 0.0 **** 0.06
5298 H 54.5975653455497 23.62304589996444 95.89703322148353 H 0.0 **** 0.06
5299 H 52.90604356553257 24.172220891851453 95.82230422616976 H 0.0 **** 0.06
5300 H 53.31289711709155 22.658092255250622 96.66425915547626 H 0.0 **** 0.06
5301 C 100.69884238017931 58.43833145504681 95.11254256261881 C 0.0 **** -0.24
5302 H 101.58393170719484 59.067455682902676 95.01326913721556 H 0.0 **** 0.06
5303 H 100.88333204224381 57.47458695068559 94.63688646639855 H 0.0 **** 0.06
5304 H 99.85101976343407 58.92576725454711 94.62948374925872 H 0.0 **** 0.06
5305 H 100.47686831201122 58.287327103006476 96.16889608273556 H 0.0 **** 0.06
5306 C 36.518781600730236 82.78502589605307 90.34774972988313 C 0.0 **** -0.24
5307 H 37.06272203620131 82.0531820260567 89.75110587995462 H 0.0 **** 0.06
5308 H 35.95901684950806 82.27222696619938 91.12969232908796 H 0.0 **** 0.06
5309 H 35.8273098129207 83.33335595029945 89.70613019588893 H 0.0 **** 0.06
5310 H 37.223569638513254 83.4812554184522 90.80010769133523 H 0.0 **** 0.06
5311 C 29.854209175812116 71.5627774604821 46.30662061978302 C 0.0 **** -0.24
5312 H 28.825100709153304 71.84699748615813 46.527827196564516 H 0.0 **** 0.06
5313 H 30.527200045343392 72.07175931469808 46.99723583768922 H 0.0 **** 0.06
5314 H 30.098256160933232 71.84815578163139 45.283221447255926 H 0.0 **** 0.06
5315 H 29.96469468017628 70.48406737336106 46.41888410187504 H 0.0 **** 0.06
5316 C 117.53595439684561 113.60937740907494 118.63798650205257 C 0.0 **** -0.24
5317 H 117.54315540364388 114.4209455563625 117.90988973717538 H 0.0 **** 0.06
5318 H 118.55695883054399 113.40310218795538 118.9612017997743 H 0.0 **** 0.06
5319 H 117.11154980549026 112.7151757688343 118.18108086554281 H 0.0 **** 0.06
5320 H 116.9339989369818 113.89885219573314 119.4992498362314 H 0.0 **** 0.06
5321 C 46.004417941183505 13.343846786578439 69.11563084879435 C 0.0 **** -0.24
5322 H 46.06466118280014 14.012512775886108 68.25603082160015 H 0.0 **** 0.06
5323 H 45.37764686105302 12.486761909344068 68.86584254493437 H 0.0 **** 0.06
5324 H 45.5704209326926 13.877186198926097 69.9611621699924 H 0.0 **** 0.06
5325 H 47.00362164605124 12.998162734756988 69.37757162257148 H 0.0 **** 0.06
5326 C 16.30154299804269 57.494868317857105 22.9449233763375 C 0.0 **** -0.24
5327 H 15.40421202326749 57.53047364318005 23.56336981797122 H 0.0 **** 0.06
5328 H 16.45631792335169 56.47689549183139 22.588160735186577 H 0.0 **** 0.06
5329 H 17.16228478509919 57.80749104169498 23.536221258949837 H 0.0 **** 0.06
5330 H 16.182912436216895 58.165394910599 22.093988932389507 H 0.0 **** 0.06
5331 C 98.4461727038912 5.810383441139461 115.93994235507276 C 0.0 **** -0.24
5332 H 99.47936969689266 6.033807282925116 116.20632055529606 H 0.0 **** 0.06
5333 H 98.21207565617476 6.269083906862711 114.97812784458584 H 0.0 **** 0.06
5334 H 97.77949455038353 6.2088835321621545 116.70485574956575 H 0.0 **** 0.06
5335 H 98.31400945142386 4.730777850737429 115.86849157375089 H 0.0 **** 0.06
5336 C 105.13076900928789 85.35007625658523 97.24928911601643 C 0.0 **** -0.24
5337 H 105.19433618704664 86.42033925202975 97.4488961714247 H 0.0 **** 0.06
5338 H 104.08307669266824 85.05201550286665 97.19799363653689 H 0.0 **** 0.06
5339 H 105.62628480226667 84.80126545705409 98.04988786080244 H 0.0 **** 0.06
5340 H 105.61870109890538 85.12824186092303 96.30003658816753 H 0.0 **** 0.06
5341 C 62.023879402901066 37.99609547271763 82.95519870479438 C 0.0 **** -0.24
5342 H 61.22614580396114 38.72935134001986 83.07756112092522 H 0.0 **** 0.06
5343 H 62.414374122091225 37.718013727185365 83.93462253743087 H 0.0 **** 0.06
5344 H 62.82369643190676 38.426434548460605 82.35334779975142 H 0.0 **** 0.06
5345 H 61.62926116477231 37.11061321150834 82.45617844201053 H 0.0 **** 0.06
5346 C 7.173191538702312 108.20895141094599 51.067381626164575 C 0.0 **** -0.24
5347 H 7.220347705562389 109.10731187527841 51.68310263276422 H 0.0 **** 0.06
5348 H 7.099678413149789 107.33144730568938 51.70968290049737 H 0.0 **** 0.06
5349 H 8.073226253015406 108.13890782936778 50.45751614199193 H 0.0 **** 0.06
5350 H 6.298132915011436 108.25986260287317 50.41887636765918 H 0.0 **** 0.06
5351 C 55.71329678626614 55.64271048482163 96.97238666410206 C 0.0 **** -0.24
5352 H 56.769008130809596 55.87096820464502 97.11391565411299 H 0.0 **** 0.06
5353 H 55.10777193562052 56.39564353158554 97.47960083144304 H 0.0 **** 0.06
5354 H 55.49445975480597 54.65931649523262 97.38810912579672 H 0.0 **** 0.06
5355 H 55.48072975255633 55.64668571106568 95.90674721540157 H 0.0 **** 0.06
5356 C 102.46155301988807 86.46689146481609 38.32042413671968 C 0.0 **** -0.24
5357 H 101.67292478786868 85.85922308589448 38.764035695807834 H 0.0 **** 0.06
5358 H 103.09411678367718 86.87333320228498 39.10886671668396 H 0.0 **** 0.06
5359 H 102.01498206564483 87.28426150488735 37.754325944834164 H 0.0 **** 0.06
5360 H 103.06357416083873 85.84872497715978 37.653231209235656 H 0.0 **** 0.06
5361 C 11.45766256061956 89.41960856316558 97.78768768731229 C 0.0 **** -0.24
5362 H 10.513754242832537 89.02318015819677 97.41124210332217 H 0.0 **** 0.06
5363 H 11.556291202722235 90.4642256712691 97.49164193660337 H 0.0 **** 0.06
5364 H 12.284067241834364 88.84353373391076 97.37284242340897 H 0.0 **** 0.06
5365 H 11.473005094709993 89.3463944496336 98.87558287001224 H 0.0 **** 0.06
5366 C 118.74384124160657 108.49175483663421 26.616777291704437 C 0.0 **** -0.24
5367 H 118.62525656241921 108.09627484464278 27.62589366697742 H 0.0 **** 0.06
5368 H 117.76986651383496 108.53868689923198 26.129255800846664 H 0.0 **** 0.06
5369 H 119.40505701772356 107.83939847219276 26.04701646519581 H 0.0 **** 0.06
5370 H 119.17523072692839 109.49171501652964 26.667790526066028 H 0.0 **** 0.06
5371 C 87.11172745833196 53.9924074263477 81.75740152376898 C 0.0 **** -0.24
5372 H 87.13583587883056 53.52123432738379 82.74033707703376 H 0.0 **** 0.06
5373 H 86.14530438212464 54.4756018720298 81.61082327353017 H 0.0 **** 0.06
5374 H 87.26128628673297 53.23583786733461 80.98768262864917 H 0.0 **** 0.06
5375 H 87.9049492936683 54.737705778664996 81.69281748176397 H 0.0 **** 0.06
5376 C 81.28173849750266 17.365962086197612 16.23662132641045 C 0.0 **** -0.24
5377 H 82.13722079625168 17.06032700184798 16.84005970518586 H 0.0 **** 0.06
5378 H 81.5039015500493 18.312973322853452 15.74577938954435 H 0.0 **** 0.06
5379 H 80.40856780147303 17.483983065998046 16.878969054471316 H 0.0 **** 0.06
5380 H 81.07879985056977 16.6046227395625 15.4838837658912 H 0.0 **** 0.06
5381 C 51.571550587135185 104.3551173146173 31.733786356294615 C 0.0 **** -0.24
5382 H 51.36045190812104 105.3109545298314 32.21471069063335 H 0.0 **** 0.06
5383 H 50.634152730215035 103.87145631036833 31.46033285011248 H 0.0 **** 0.06
5384 H 52.123748295749046 103.71625183543267 32.4234342327328 H 0.0 **** 0.06
5385 H 52.1694145559306 104.52404613074748 30.83790671761591 H 0.0 **** 0.06
5386 C 27.540560441193513 70.07463828434734 42.98295993680387 C 0.0 **** -0.24
5387 H 28.59033640111329 70.16806980644736 42.70724182639427 H 0.0 **** 0.06
5388 H 27.4647136844618 69.68665518590657 43.999433761369595 H 0.0 **** 0.06
5389 H 27.043023607629827 69.39164067457827 42.2954987761657 H 0.0 **** 0.06
5390 H 27.063662059624683 71.05327051055801 42.93155516339053 H 0.0 **** 0.06
5391 C 81.40985993184836 109.94762569303015 86.95359018382197 C 0.0 **** -0.24
5392 H 81.072272672487 109.97499982704028 85.91728323113472 H 0.0 **** 0.06
5393 H 82.45121301057011 109.62557912533575 86.98719688930106 H 0.0 **** 0.06
5394 H 80.79364963662161 109.24659447615738 87.51697610949839 H 0.0 **** 0.06
5395 H 81.32127284455967 110.9413243295864 87.39068721378575 H 0.0 **** 0.06
5396 C 89.9525302647402 86.18830414689504 49.30737747623343 C 0.0 **** -0.24
5397 H 89.27513087337454 86.54297953025352 48.53037617417331 H 0.0 **** 0.06
5398 H 89.37946336625944 85.92940302006824 50.19764041482216 H 0.0 **** 0.06
5399 H 90.66752671454347 86.9748116103928 49.55149779971532 H 0.0 **** 0.06
5400 H 90.48701391906238 85.30913038857824 48.9493883458521 H 0.0 **** 0.06
5401 C 74.44133804248531 42.9405899944407 51.87190399565293 C 0.0 **** -0.24
5402 H 75.08047024782795 42.1671171664926 51.446547259582566 H 0.0 **** 0.06
5403 H 74.55755810580021 43.86201845337931 51.30045485610982 H 0.0 **** 0.06
5404 H 74.72594834575631 43.11694587533955 52.90854041541992 H 0.0 **** 0.06
5405 H 73.40170472727198 42.61539227052998 51.829813679471286 H 0.0 **** 0.06
5406 C 12.023538557987877 71.46381525509167 14.771884318913663 C 0.0 **** -0.24
5407 H 12.98264099460556 70.97662871174958 14.597169302811778 H 0.0 **** 0.06
5408 H 11.850576402017595 72.21159437417242 13.997461893564676 H 0.0 **** 0.06
5409 H 12.035079729087443 71.94683399803569 15.748629540356859 H 0.0 **** 0.06
5410 H 11.227018041821765 70.72009548295276 14.74299566340045 H 0.0 **** 0.06
5411 C 76.55424625816445 67.01819354396798 68.12742574457565 C 0.0 **** -0.24
5412 H 77.18712768767338 66.31636212573511 67.58378858827882 H 0.0 **** 0.06
5413 H 77.16943602221917 67.81979759504364 68.53582022520197 H 0.0 **** 0.06
5414 H 76.04976969107886 66.4962636575633 68.94146888981214 H 0.0 **** 0.06
5415 H 75.8113237139755 67.43809211382319 67.44929385908085 H 0.0 **** 0.06
5416 C 89.7690134159507 77.94570116466804 96.01296151293235 C 0.0 **** -0.24
5417 H 90.673775632455 78.00566771529361 96.61753978774388 H 0.0 **** 0.06
5418 H 89.9815320371793 77.39762768279093 95.09475135404611 H 0.0 **** 0.06
5419 H 89.42990811005248 78.95189152237222 95.76590454568495 H 0.0 **** 0.06
5420 H 88.99171578711886 77.42716004418574 96.57379129349488 H 0.0 **** 0.06
5421 C 116.66918752670006 83.12021298171345 50.80667472629728 C 0.0 **** -0.24
5422 H 117.70988929848208 83.14459620229195 50.48363626962741 H 0.0 **** 0.06
5423 H 116.25207660841855 82.13231050303108 50.61189862379446 H 0.0 **** 0.06
5424 H 116.100332228593 83.87077942473604 50.25783209141156 H 0.0 **** 0.06
5425 H 116.61615039722672 83.33397598012232 51.87453991255838 H 0.0 **** 0.06
5426 C 7.1749905888239915 69.25882996949451 114.80362196972305 C 0.0 **** -0.24
5427 H 7.897036706492649 70.07445588744017 114.76235034872786 H 0.0 **** 0.06
5428 H 7.696659732104376 68.32390158896092 115.01137873373034 H 0.0 **** 0.06
5429 H 6.658303525438246 69.18205343421525 113.84772013171732 H 0.0 **** 0.06
5430 H 6.450616074358784 69.45415333006576 115.593661116931 H 0.0 **** 0.06
5431 C 16.514057982016055 78.84024507700457 114.08461291197091 C 0.0 **** -0.24
5432 H 16.49284625221236 79.90365712610861 113.8459741602473 H 0.0 **** 0.06
5433 H 16.928512157896037 78.28798342939325 113.24072285662606 H 0.0 **** 0.06
5434 H 15.49995958680006 78.4922543418595 114.28356395926812 H 0.0 **** 0.06
5435 H 17.132746271541194 78.67811345784776 114.96638931175761 H 0.0 **** 0.06
5436 C 19.390508709127218 65.59406711488708 6.886796380649287 C 0.0 **** -0.24
5437 H 19.471641504735487 65.6009577071639 5.799382192390283 H 0.0 **** 0.06
5438 H 18.937126045055038 64.65727796394731 7.21119710695973 H 0.0 **** 0.06
5439 H 18.768715926158592 66.42915122556917 7.208252111448957 H 0.0 **** 0.06
5440 H 20.383000396217767 65.6884059849082 7.325830451313919 H 0.0 **** 0.06
5441 C 93.43562990772642 109.74385859169647 6.183807179400048 C 0.0 **** -0.24
5442 H 92.60199335810267 109.12250565220728 5.856397338054791 H 0.0 **** 0.06
5443 H 93.97379279578979 110.11676974293746 5.311595836651264 H 0.0 **** 0.06
5444 H 94.1103594958563 109.15127411763578 6.801549996880254 H 0.0 **** 0.06
5445 H 93.05587326894462 110.58504214475138 6.763292870053419 H 0.0 **** 0.06
5446 C 47.13188454954275 93.04049912705659 2.510614687920743 C 0.0 **** -0.24
5447 H 46.06232919043333 92.8307376620102 2.5355557828350257 H 0.0 **** 0.06
5448 H 47.524932434029665 93.03948430274878 3.5277906610406973 H 0.0 **** 0.06
5449 H 47.300043873001584 94.01692847332674 2.056455317082035 H 0.0 **** 0.06
5450 H 47.63754305016215 92.27433678034822 1.9238845618567577 H 0.0 **** 0.06
5451 C 22.653652603251373 67.35361197525617 98.11907460284851 C 0.0 **** -0.24
5452 H 22.616093634294558 66.30984242460306 98.43279117455893 H 0.0 **** 0.06
5453 H 22.501220746117525 67.41511652384457 97.04144001678702 H 0.0 **** 0.06
5454 H 23.62661467791513 67.77401961391683 98.37404676950308 H 0.0 **** 0.06
5455 H 21.869654385183296 67.91372328518332 98.62939776033721 H 0.0 **** 0.06
5456 C 100.94442972166658 115.04446792723769 84.91425993235424 C 0.0 **** -0.24
5457 H 100.45898341981868 114.14404222108476 84.54002216054207 H 0.0 **** 0.06
5458 H 100.50910851515107 115.91990265288649 84.43059769684356 H 0.0 **** 0.06
5459 H 102.01080139274359 115.00084990182128 84.69338104981438 H 0.0 **** 0.06
5460 H 100.79938333983606 115.11520777092258 85.99265320102967 H 0.0 **** 0.06
5461 C 5.020605446760754 114.86152609360059 27.710637990856583 C 0.0 **** -0.24
5462 H 4.122607824316589 115.45227543609266 27.52602722878295 H 0.0 **** 0.06
5463 H 5.9007993637392815 115.49579685524054 27.598933373272928 H 0.0 **** 0.06
5464 H 5.069406354469436 114.04165220829844 26.995837528289684 H 0.0 **** 0.06
5465 H 4.988953421440073 114.46052313408862 28.723852856006772 H 0.0 **** 0.06
5466 C 7.5075344887032145 10.970224824287868 99.33943115395806 C 0.0 **** -0.24
5467 H 7.014095116703665 10.087461270266544 99.74459358222433 H 0.0 **** 0.06
5468 H 8.05389483669682 11.478783094904657 100.13439183435187 H 0.0 **** 0.06
5469 H 6.759616941680566 11.645021392594685 98.92258522766886 H 0.0 **** 0.06
5470 H 8.203243293559936 10.669246212086875 98.55499517149474 H 0.0 **** 0.06
5471 C 18.525184027540604 86.87537537673569 67.25571888920251 C 0.0 **** -0.24
5472 H 17.776421135775365 86.7799730240518 68.04112833985232 H 0.0 **** 0.06
5473 H 18.03927509924864 86.810541285814 66.28169441421971 H 0.0 **** 0.06
5474 H 19.255397183260214 86.07160479910772 67.35105612919216 H 0.0 **** 0.06
5475 H 19.02917400039064 87.83729539244734 67.34834473103996 H 0.0 **** 0.06
5476 C 57.856589293652185 94.71329935574903 49.00534447366906 C 0.0 **** -0.24
5477 H 58.28053037990359 95.5003576433993 48.38187613881152 H 0.0 **** 0.06
5478 H 58.22385008292972 93.74418306393508 48.66662816846759 H 0.0 **** 0.06
5479 H 56.7689164407799 94.7366717123669 48.928864771204296 H 0.0 **** 0.06
5480 H 58.15120538944324 94.87234208694096 50.042449246685784 H 0.0 **** 0.06
5481 C 68.91727206195125 15.594990364069616 30.857372586246186 C 0.0 **** -0.24
5482 H 69.78543779678182 15.35423909971314 30.243814393235766 H 0.0 **** 0.06
5483 H 69.24896666672822 16.017815655634365 31.8054722684368 H 0.0 **** 0.06
5484 H 68.34093012845102 14.688466831895 31.044529424385416 H 0.0 **** 0.06
5485 H 68.29307776342344 16.32108684421067 30.334762734684887 H 0.0 **** 0.06
5486 C 83.05465520197066 0.49645294452594335 60.53698107761776 C 0.0 **** -0.24
5487 H 82.25327740676357 0.02787892017297544 61.10872806280528 H 0.0 **** 0.06
5488 H 83.95796281086453 0.538319908842638 61.14533629730257 H 0.0 **** 0.06
5489 H 82.75610487140878 1.5063217226210064 60.25635446111222 H 0.0 **** 0.06
5490 H 83.24829249752375 -0.0881575751972008 59.63755030467927 H 0.0 **** 0.06
5491 C 2.159821583093219 111.21684385273988 116.03617216869304 C 0.0 **** -0.24
5492 H 2.6130370023794285 110.38236567088454 116.5716892481324 H 0.0 **** 0.06
5493 H 2.75428689931357 111.44397032996069 115.15043225041295 H 0.0 **** 0.06
5494 H 2.1282008900908522 112.09042845641731 116.68592946006343 H 0.0 **** 0.06
5495 H 1.1470395852360866 110.94904975568384 115.73573333578263 H 0.0 **** 0.06
5496 C 46.004150077205054 69.14992881758067 82.88781952898975 C 0.0 **** -0.24
5497 H 45.39151722917341 69.57476220911758 82.09176850425447 H 0.0 **** 0.06
5498 H 45.49051691375439 68.29261747874901 83.3229916963854 H 0.0 **** 0.06
5499 H 46.17170919680106 69.90310130036437 83.65809399626181 H 0.0 **** 0.06
5500 H 46.9616934287708 68.83079445855375 82.47732286677783 H 0.0 **** 0.06
5501 C 70.52823616278909 90.45891928904382 106.49738341134326 C 0.0 **** -0.24
5502 H 70.26957282311426 91.46577022368899 106.82599423411787 H 0.0 **** 0.06
5503 H 70.23867297991791 89.7409994153598 107.26532145504964 H 0.0 **** 0.06
5504 H 71.60376267457468 90.39775435816898 106.32939478381897 H 0.0 **** 0.06
5505 H 70.00171020043342 90.2335861768189 105.57039855598828 H 0.0 **** 0.06
5506 C 108.20501274614654 86.62593060115657 48.134571209832416 C 0.0 **** -0.24
5507 H 107.70485594591997 85.89047121527284 47.50353372740125 H 0.0 **** 0.06
5508 H 108.79535550336234 86.1132253120077 48.89284502720591 H 0.0 **** 0.06
5509 H 107.4581792054758 87.25541700588485 48.618208560792596 H 0.0 **** 0.06
5510 H 108.85990817470443 87.24524930213335 47.520453973283566 H 0.0 **** 0.06
5511 C 78.7279600960704 91.14691220846319 28.52621146588806 C 0.0 **** -0.24
5512 H 79.33111854015289 92.05516427278687 28.554384697056285 H 0.0 **** 0.06
5513 H 79.05102140548351 90.47119959700896 29.3176363706474 H 0.0 **** 0.06
5514 H 78.8513210191841 90.66012186459449 27.558449692182627 H 0.0 **** 0.06
5515 H 77.67821782496969 91.40361725386737 28.67265709889307 H 0.0 **** 0.06
5516 C 19.62867059956949 69.59099195480741 99.47228936472439 C 0.0 **** -0.24
5517 H 20.357179904679697 69.83165230342817 98.69790097963366 H 0.0 **** 0.06
5518 H 20.074943177169217 69.75559272901413 100.4535614992694 H 0.0 **** 0.06
5519 H 19.33107179691413 68.54686997952669 99.37891492578333 H 0.0 **** 0.06
5520 H 18.754365730610857 70.2306853881739 99.35893249087187 H 0.0 **** 0.06
5521 C 101.44261654719196 80.76299210123562 113.45722523653467 C 0.0 **** -0.24
5522 H 100.56922146589073 81.4152920192256 113.4926159684738 H 0.0 **** 0.06
5523 H 102.05199261550959 81.0210933603779 112.59088342171705 H 0.0 **** 0.06
5524 H 101.11715652793984 79.72568746112839 113.37789406043203 H 0.0 **** 0.06
5525 H 102.029229574194 80.89262038652404 114.36634029679584 H 0.0 **** 0.06
5526 C 8.09595706502818 20.471421891163374 41.6239075765474 C 0.0 **** -0.24
5527 H 7.3282463322469376 20.179316224367966 40.907937581703024 H 0.0 **** 0.06
5528 H 7.834711181625128 20.092091281061272 42.61179544649507 H 0.0 **** 0.06
5529 H 8.16508757593678 21.558943737294868 41.65837218358586 H 0.0 **** 0.06
5530 H 9.056263503116828 20.056651851091942 41.31732816668232 H 0.0 **** 0.06
5531 C 53.35700855162773 61.41403647285485 41.3442503638247 C 0.0 **** -0.24
5532 H 52.59023406498193 61.423564282257 42.11806791470008 H 0.0 **** 0.06
5533 H 53.50058226515088 60.39477067511451 40.986625768605336 H 0.0 **** 0.06
5534 H 54.2936461434129 61.789640976811846 41.75616521422023 H 0.0 **** 0.06
5535 H 53.04437266418485 62.05022240003408 40.51507188551085 H 0.0 **** 0.06
5536 C 63.91723363524585 56.99038645878724 28.34683838496403 C 0.0 **** -0.24
5537 H 64.66031935064183 57.78763750669154 28.37569987548764 H 0.0 **** 0.06
5538 H 63.082038570898334 57.29649275585214 27.715853611602085 H 0.0 **** 0.06
5539 H 63.55767787815719 56.79162214965558 29.35574615727829 H 0.0 **** 0.06
5540 H 64.37029499635094 56.08699650708843 27.937296413939407 H 0.0 **** 0.06
5541 C 69.0208513357108 72.54132809480711 66.54263772093626 C 0.0 **** -0.24
5542 H 68.49152876926786 72.30436123239053 67.46618466864871 H 0.0 **** 0.06
5543 H 69.97789576480892 73.00543434818428 66.78190314529351 H 0.0 **** 0.06
5544 H 68.42099634419463 73.23028347844115 65.9480016673048 H 0.0 **** 0.06
5545 H 69.19097011842953 71.6263598701295 65.97684340565618 H 0.0 **** 0.06
5546 C 70.07553746958234 101.11384971650557 97.75264162461147 C 0.0 **** -0.24
5547 H 69.27069477212214 100.5642436999388 97.26355259037916 H 0.0 **** 0.06
5548 H 70.49378797383156 100.50604737333148 98.55515418713696 H 0.0 **** 0.06
5549 H 69.68176146081672 102.0420657849981 98.16630203395297 H 0.0 **** 0.06
5550 H 70.85411095108364 101.34158390293334 97.02474944190558 H 0.0 **** 0.06
5551 C 62.32129459505004 52.724467625098725 15.421719030924606 C 0.0 **** -0.24
5552 H 62.54373095069649 53.59373994624448 14.803152747352385 H 0.0 **** 0.06
5553 H 61.835699772087814 51.960884785666735 14.81365775640623 H 0.0 **** 0.06
5554 H 61.65791598502921 53.019077933398506 16.235431638343528 H 0.0 **** 0.06
5555 H 63.24759830886246 52.32534644249759 15.833887963399377 H 0.0 **** 0.06
5556 C 59.93989458265704 73.15732415415687 19.94122376956221 C 0.0 **** -0.24
5557 H 59.1186908098469 73.65273548058198 20.459654650465012 H 0.0 **** 0.06
5558 H 60.76570290992003 73.00060548681725 20.6367455608187 H 0.0 **** 0.06
5559 H 60.27592869938638 73.78140519087594 19.112963834961203 H 0.0 **** 0.06
5560 H 59.60043613170077 72.19593416939631 19.557171999802176 H 0.0 **** 0.06
5561 C 82.23455655708887 66.87473008916885 8.121426620872455 C 0.0 **** -0.24
5562 H 81.96198349293738 65.85156263897969 7.862376678056307 H 0.0 **** 0.06
5563 H 83.30365043000981 66.92431879219632 8.3311833793002 H 0.0 **** 0.06
5564 H 81.67551928267778 67.18644137221045 9.003923642746713 H 0.0 **** 0.06
5565 H 81.9958001022095 67.53622290331182 7.287733469725566 H 0.0 **** 0.06
5566 C 59.177302447086696 101.69626866156045 22.872751094652813 C 0.0 **** -0.24
5567 H 58.65060984025069 102.54485439791009 22.435385394645465 H 0.0 **** 0.06
5568 H 59.822389429976674 101.24316133231457 22.12034224947888 H 0.0 **** 0.06
5569 H 58.451715156244056 100.9606891338575 23.22078765170147 H 0.0 **** 0.06
5570 H 59.78210511361885 102.03736655881582 23.712974593896746 H 0.0 **** 0.06
5571 C 22.77446516149395 104.64196077097318 25.120072637142215 C 0.0 **** -0.24
5572 H 21.99966789079707 104.27219174415805 25.79064742331005 H 0.0 **** 0.06
5573 H 22.648897444720035 105.7149411034336 24.97630371945857 H 0.0 **** 0.06
5574 H 22.69549757396308 104.13441053480756 24.158255348934546 H 0.0 **** 0.06
5575 H 23.754549951334297 104.44522686056698 25.55455179537043 H 0.0 **** 0.06
5576 C 77.7395379509152 92.00534390918904 47.60649971775028 C 0.0 **** -0.24
5577 H 78.40274855519198 91.1605744517571 47.78829007887422 H 0.0 **** 0.06
5578 H 77.88348614579922 92.7547675573027 48.38430794447521 H 0.0 **** 0.06
5579 H 76.7049598703822 91.66325453575877 47.61775094069753 H 0.0 **** 0.06
5580 H 77.96676518329338 92.44216397553907 46.63350863588499 H 0.0 **** 0.06
5581 C 85.2966447853434 74.29885769684984 34.38968513959139 C 0.0 **** -0.24
5582 H 84.38636935033298 74.7934582642929 34.051708154168296 H 0.0 **** 0.06
5583 H 85.96409338221974 74.147920226275 33.540835411145 H 0.0 **** 0.06
5584 H 85.04395540917363 73.33403130478484 34.83025491268609 H 0.0 **** 0.06
5585 H 85.79216099964736 74.92002099204643 35.13594208036608 H 0.0 **** 0.06
5586 C 103.05830978338034 109.0002090789585 108.5201440610681 C 0.0 **** -0.24
5587 H 102.51624999085664 109.34529142909071 107.63885806410653 H 0.0 **** 0.06
5588 H 103.537447492549 109.84934170263358 109.00704793990656 H 0.0 **** 0.06
5589 H 103.81612536948751 108.27732239114937 108.21906282957289 H 0.0 **** 0.06
5590 H 102.36123607833355 108.5293220675772 109.21359432308489 H 0.0 **** 0.06
5591 C 111.53682708800443 34.075540245201864 1.3798663432181684 C 0.0 **** -0.24
5592 H 111.35487265761859 35.05355166885783 1.8255397860589824 H 0.0 **** 0.06
5593 H 110.85361961643855 33.3462439568248 1.814577759563491 H 0.0 **** 0.06
5594 H 112.56524653096835 33.77369080673881 1.5755085487373606 H 0.0 **** 0.06
5595 H 111.37286229635367 34.131911292891935 0.3039939577806763 H 0.0 **** 0.06
5596 C 30.216378045404696 0.8312290940305047 31.818322122536188 C 0.0 **** -0.24
5597 H 30.776200528582706 1.0707881051023946 32.722331985394305 H 0.0 **** 0.06
5598 H 29.17797464997389 0.6253104524763557 32.0782518806197 H 0.0 **** 0.06
5599 H 30.654025351922343 -0.045806112606101124 31.342321488293777 H 0.0 **** 0.06
5600 H 30.258885808625024 1.6768835315557453 31.131028660959032 H 0.0 **** 0.06
5601 C 57.51229256734954 70.35222884962474 79.6120686508985 C 0.0 **** -0.24
5602 H 58.08888788772497 69.91017728450166 78.80012360203852 H 0.0 **** 0.06
5603 H 57.80930806128273 69.89832825409806 80.55803465087973 H 0.0 **** 0.06
5604 H 56.450400796094534 70.17467693636613 79.44195177324843 H 0.0 **** 0.06
5605 H 57.699364869320895 71.42548843874934 79.6488570349776 H 0.0 **** 0.06
5606 C 30.646924484753754 31.696548791310164 29.840237607268215 C 0.0 **** -0.24
5607 H 31.71192229548589 31.473257705413793 29.77917775098736 H 0.0 **** 0.06
5608 H 30.076102210804635 30.84856312007325 29.45919047109141 H 0.0 **** 0.06
5609 H 30.425526947028317 32.58120382591327 29.24263974294012 H 0.0 **** 0.06
5610 H 30.373369259025964 31.882464755726588 30.878564784895666 H 0.0 **** 0.06
5611 C 57.96960056933648 50.8688264343146 18.38476456155 C 0.0 **** -0.24
5612 H 57.00141877266361 50.50096974301397 18.04489099874722 H 0.0 **** 0.06
5613 H 57.92210480100255 51.95091728603404 18.510856459866403 H 0.0 **** 0.06
5614 H 58.731712314100776 50.62165975114709 17.646617685773165 H 0.0 **** 0.06
5615 H 58.22045235718349 50.40203519993656 19.33744022060975 H 0.0 **** 0.06
5616 C 69.46550014309801 65.42950659659655 78.83137639042621 C 0.0 **** -0.24
5617 H 69.37366017511374 66.46662367815992 78.50619759759189 H 0.0 **** 0.06
5618 H 70.19819893623634 64.9176335203932 78.20757434244831 H 0.0 **** 0.06
5619 H 68.4995039379678 64.93295772395905 78.74054627641809 H 0.0 **** 0.06
5620 H 69.79090750597842 65.40379687674084 79.87106509029746 H 0.0 **** 0.06
5621 C 29.051145910542317 95.65770480645938 61.684706078431 C 0.0 **** -0.24
5622 H 28.736429125912878 94.61609919025696 61.6344013838256 H 0.0 **** 0.06
5623 H 28.1743309236317 96.30385015215671 61.64053312986264 H 0.0 **** 0.06
5624 H 29.70871287178909 95.8794534814084 60.844429482134764 H 0.0 **** 0.06
5625 H 29.5842022074008 95.83140865051126 62.619042464085474 H 0.0 **** 0.06
5626 C 76.98426093569378 21.1119873679294 94.47209894799698 C 0.0 **** -0.24
5627 H 76.22473243763443 21.458155706773397 93.77192936585055 H 0.0 **** 0.06
5628 H 77.04464858094218 21.802019678339292 95.31421554434039 H 0.0 **** 0.06
5629 H 77.95011894877297 21.068683271508604 93.96860949213115 H 0.0 **** 0.06
5630 H 76.71871685168719 20.11921963457135 94.83442075783603 H 0.0 **** 0.06
5631 C 61.91963057826778 80.62586381604763 60.4231695903054 C 0.0 **** -0.24
5632 H 62.36401962998061 81.57988949643382 60.139677198949165 H 0.0 **** 0.06
5633 H 61.84829124594088 80.5672724793856 61.50964709771653 H 0.0 **** 0.06
5634 H 62.54387749271165 79.81210356199347 60.05514708725649 H 0.0 **** 0.06
5635 H 60.9240232622199 80.54555165974747 59.98766694422732 H 0.0 **** 0.06
5636 C 45.77060529396971 107.32857008635312 46.38261277070026 C 0.0 **** -0.24
5637 H 46.060591788258535 107.28418862866286 45.333000619577746 H 0.0 **** 0.06
5638 H 45.866585924984406 108.35375502631732 46.743100284342916 H 0.0 **** 0.06
5639 H 46.41833810087786 106.67536200118064 46.966807895282244 H 0.0 **** 0.06
5640 H 44.73561880869437 107.00208589611492 46.48721035560061 H 0.0 **** 0.06
5641 C 21.37054392098611 114.41400707532082 104.57867081389193 C 0.0 **** -0.24
5642 H 21.186183313350227 115.281224193111 103.94468248598176 H 0.0 **** 0.06
5643 H 20.492786039543205 113.76759229518956 104.57304792544073 H 0.0 **** 0.06
5644 H 21.571650252513052 114.74555813051381 105.59719557576 H 0.0 **** 0.06
5645 H 22.2302988440984 113.86329250884455 104.19890058730914 H 0.0 **** 0.06
5646 C 3.1487354574107584 67.61660777236276 104.53756966259138 C 0.0 **** -0.24
5647 H 2.800036239438178 68.60292877009323 104.22955118277136 H 0.0 **** 0.06
5648 H 3.17752424650908 67.56534085152887 105.62571186056581 H 0.0 **** 0.06
5649 H 4.148101524646732 67.44401261627661 104.13822277209357 H 0.0 **** 0.06
5650 H 2.4681501657759704 66.8559372868454 104.15466541637889 H 0.0 **** 0.06
5651 C 67.96809919366896 104.68383365836286 51.50078274873735 C 0.0 **** -0.24
5652 H 67.22471250408842 105.46355135849888 51.33374045000974 H 0.0 **** 0.06
5653 H 68.44350138402967 104.42653965705261 50.55450049831725 H 0.0 **** 0.06
5654 H 67.48218050978323 103.80139062120958 51.91534372732161 H 0.0 **** 0.06
5655 H 68.72225312355224 105.04526963093923 52.20051091721345 H 0.0 **** 0.06
5656 C 13.38798033239867 90.18234551004662 30.17547609674034 C 0.0 **** -0.24
5657 H 13.436863611868347 90.54419343519902 31.201611549013137 H 0.0 **** 0.06
5658 H 14.31378158125787 89.6637435642312 29.928163365711015 H 0.0 **** 0.06
5659 H 13.2529443205093 91.02675530606498 29.49892011745277 H 0.0 **** 0.06
5660 H 12.547050294545201 89.4964936598204 30.072158684359096 H 0.0 **** 0.06
5661 C 2.521093275454632 14.251609776008138 2.0097629052281434 C 0.0 **** -0.24
5662 H 3.2934191812321956 13.66020299557772 2.5034889390946944 H 0.0 **** 0.06
5663 H 2.7833580647676968 15.308506172554242 2.0656718082555727 H 0.0 **** 0.06
5664 H 1.5651898579186536 14.087616216739153 2.5069432772639715 H 0.0 **** 0.06
5665 H 2.444553001995189 13.949806659249226 0.9659966793478816 H 0.0 **** 0.06
5666 C 8.423078094050382 110.02501311407394 118.64104554428039 C 0.0 **** -0.24
5667 H 8.212274911989738 110.91786392998999 119.2300158591838 H 0.0 **** 0.06
5668 H 9.026765177357177 110.2956581170982 117.77503819394238 H 0.0 **** 0.06
5669 H 7.485030904371527 109.58155261380418 118.30622490792254 H 0.0 **** 0.06
5670 H 8.966787141013839 109.30587451989123 119.25318824697843 H 0.0 **** 0.06
5671 C 2.5845369037435972 99.70661688367022 69.80371519872477 C 0.0 **** -0.24
5672 H 3.4684502448550916 99.65874070913975 69.1668316051844 H 0.0 **** 0.06
5673 H 2.8073671539650036 99.2465263303877 70.76736401447849 H 0.0 **** 0.06
5674 H 1.7633376109238839 99.17193129555173 69.32682885202172 H 0.0 **** 0.06
5675 H 2.302432665735708 100.7480213648179 69.95461716371491 H 0.0 **** 0.06
5676 C 63.62181453126097 64.91742103438352 91.08479637342353 C 0.0 **** -0.24
5677 H 62.7206446916454 64.42203328669348 90.72297391958693 H 0.0 **** 0.06
5678 H 64.46972190155537 64.2376229107455 90.99743387014306 H 0.0 **** 0.06
5679 H 63.48651652808102 65.19731212738606 92.1295877417327 H 0.0 **** 0.06
5680 H 63.80864006824964 65.81103698581111 90.48960455886063 H 0.0 **** 0.06
5681 C 54.43375957320919 27.049955901213906 87.45797674173403 C 0.0 **** -0.24
5682 H 54.19992337677709 28.100228544205947 87.63676900241407 H 0.0 **** 0.06
5683 H 54.08481982465878 26.452910978096753 88.30078217993162 H 0.0 **** 0.06
5684 H 55.51227147562284 26.93172013355789 87.34925691533937 H 0.0 **** 0.06
5685 H 53.93825319302201 26.71800098108463 86.54594993679186 H 0.0 **** 0.06
5686 C 6.642325522588308 42.53147763969258 40.183083957726865 C 0.0 **** -0.24
5687 H 6.112765135764548 43.44992002514738 39.93030552357186 H 0.0 **** 0.06
5688 H 7.527101492578723 42.772340766115065 40.77240560919245 H 0.0 **** 0.06
5689 H 6.942224649064272 42.02049095982608 39.267909807773776 H 0.0 **** 0.06
5690 H 5.985111875438932 41.88207384001129 40.7632698099693 H 0.0 **** 0.06
5691 C 53.447933489633286 59.35071659989896 94.92366135115716 C 0.0 **** -0.24
5692 H 54.260385344171006 58.93421951603264 95.51970813992787 H 0.0 **** 0.06
5693 H 53.10909616946512 60.28339606630979 95.37463125153229 H 0.0 **** 0.06
5694 H 52.62159207794386 58.640830900786256 94.89072625290484 H 0.0 **** 0.06
5695 H 53.801976686483385 59.54369112865763 93.9115127689478 H 0.0 **** 0.06
5696 C 26.657357482189838 55.55937070977882 34.03943104187317 C 0.0 **** -0.24
5697 H 26.953146420432546 56.40748442375806 34.65692241856587 H 0.0 **** 0.06
5698 H 27.33713655432402 54.72674725804299 34.21708548408586 H 0.0 **** 0.06
5699 H 26.697169361121126 55.84419909867947 32.988279604248675 H 0.0 **** 0.06
5700 H 25.641327844521186 55.26057338295203 34.29694121773062 H 0.0 **** 0.06
5701 C 87.1817153126843 62.36337505093812 77.68440212556729 C 0.0 **** -0.24
5702 H 86.39326329492178 62.77302232728326 78.3159352644845 H 0.0 **** 0.06
5703 H 87.52643863339995 63.1310779660798 76.99003351521225 H 0.0 **** 0.06
5704 H 86.79296916803943 61.51405763547115 77.12370268866195 H 0.0 **** 0.06
5705 H 88.01401363117648 62.03763910151571 78.30876996757559 H 0.0 **** 0.06
5706 C 117.72655967037211 22.07780109850755 94.03144547249042 C 0.0 **** -0.24
5707 H 117.74472517649279 22.11889988914774 92.94277131464509 H 0.0 **** 0.06
5708 H 118.72624643289595 22.27944830352706 94.41908251832837 H 0.0 **** 0.06
5709 H 117.40536250382698 21.08721296016772 94.35299029560863 H 0.0 **** 0.06
5710 H 117.03167106139138 22.826600488506017 94.41233902187759 H 0.0 **** 0.06
5711 C 52.659592790921806 72.75596943628915 19.77348141251494 C 0.0 **** -0.24
5712 H 52.1113730895087 72.27369600226021 18.964069234780965 H 0.0 **** 0.06
5713 H 53.72553021494875 72.55854732296913 19.657134846309077 H 0.0 **** 0.06
5714 H 52.31850906574064 72.35808534936777 20.730247229782094 H 0.0 **** 0.06
5715 H 52.483404615779364 73.83058971478778 19.74268406025766 H 0.0 **** 0.06
5716 C 82.19675157664884 86.80826087875732 49.18901417993786 C 0.0 **** -0.24
5717 H 82.58319047226985 87.7610477363329 48.82830972608742 H 0.0 **** 0.06
5718 H 81.38415990797489 86.98986259997892 49.89316915121615 H 0.0 **** 0.06
5719 H 82.99480205680157 86.25892184932366 49.68883580129368 H 0.0 **** 0.06
5720 H 81.82501226879822 86.22525051276781 48.34664588496681 H 0.0 **** 0.06
5721 C 48.707269018698184 74.82433666531287 109.68647315059108 C 0.0 **** -0.24
5722 H 48.02375974156726 74.54894203706348 108.88309686526355 H 0.0 **** 0.06
5723 H 49.55580796715283 75.36867855242818 109.27112248495159 H 0.0 **** 0.06
5724 H 49.062908055463325 73.92296188237717 110.18521248297664 H 0.0 **** 0.06
5725 H 48.18645523922775 75.4562460820353 110.40561781150535 H 0.0 **** 0.06
5726 C 87.95800662355168 21.045327846542932 22.677381109114414 C 0.0 **** -0.24
5727 H 87.82033566063723 20.049758924997462 22.254315090862107 H 0.0 **** 0.06
5728 H 87.2069650892143 21.720898233720902 22.267024095336293 H 0.0 **** 0.06
5729 H 88.95350812287737 21.411551457439316 22.424611143482153 H 0.0 **** 0.06
5730 H 87.85206850428315 20.996701318540744 23.76033218994199 H 0.0 **** 0.06
5731 C 17.780071575751492 59.27799128600011 9.272599988106975 C 0.0 **** -0.24
5732 H 18.116501419185 58.5566173837366 10.01685477404041 H 0.0 **** 0.06
5733 H 16.747916410437796 59.559616543533885 9.481131761718359 H 0.0 **** 0.06
5734 H 17.841807754504572 58.831648981554004 8.279860955068642 H 0.0 **** 0.06
5735 H 18.413873472670446 60.16313145720559 9.312305442033136 H 0.0 **** 0.06
5736 C 42.82266267088764 69.24708164924431 9.439926525761223 C 0.0 **** -0.24
5737 H 41.79873441871797 68.94958202530904 9.663853785003084 H 0.0 **** 0.06
5738 H 42.845528029266575 70.30658404695549 9.18249403695063 H 0.0 **** 0.06
5739 H 43.195316174957185 68.66072182103477 8.600115785614548 H 0.0 **** 0.06
5740 H 43.45107206060894 69.07143870367764 10.313242495476345 H 0.0 **** 0.06
5741 C 61.61726742878159 36.576786145823604 71.47172722544559 C 0.0 **** -0.24
5742 H 61.380481329081334 37.11115717558158 70.55129061329194 H 0.0 **** 0.06
5743 H 62.69170856126365 36.62072778466836 71.65107320073739 H 0.0 **** 0.06
5744 H 61.30600888474902 35.536862364941584 71.37746076450478 H 0.0 **** 0.06
5745 H 61.08943107424534 37.040545346168386 72.30526413376307 H 0.0 **** 0.06
5746 C 98.6137265302012 68.42864478112745 24.939602718654157 C 0.0 **** -0.24
5747 H 99.37589259358367 69.15656064739133 24.659802775879626 H 0.0 **** 0.06
5748 H 98.34643183125422 68.56813411515694 25.987997182570354 H 0.0 **** 0.06
5749 H 99.00440144754609 67.42089193470969 24.79546414146469 H 0.0 **** 0.06
5750 H 97.73119420859933 68.56923858217414 24.31650916082168 H 0.0 **** 0.06
5751 C 114.17433477167003 21.061546594690725 99.43759002454732 C 0.0 **** -0.24
5752 H 113.47079084655135 21.267328280158125 98.63038840229873 H 0.0 **** 0.06
5753 H 113.62429745065148 20.899833729201987 100.36538178193169 H 0.0 **** 0.06
5754 H 114.84856217276413 21.90950036417999 99.5576665884563 H 0.0 **** 0.06
5755 H 114.75153370574284 20.168935528988328 99.19682160420092 H 0.0 **** 0.06
5756 C 7.939808182686164 26.445660760297784 18.80249583581505 C 0.0 **** -0.24
5757 H 7.679500751270226 27.322005803934644 18.20899860105527 H 0.0 **** 0.06
5758 H 9.018428852108258 26.28993973470523 18.7659713811359 H 0.0 **** 0.06
5759 H 7.432602734567936 25.569882782619345 18.399203057044105 H 0.0 **** 0.06
5760 H 7.630390807892994 26.6018809301041 19.835733317595356 H 0.0 **** 0.06
5761 C 35.65606062610735 87.72495074007719 59.925808360405256 C 0.0 **** -0.24
5762 H 35.03714541992181 87.43082493791306 59.07784457644223 H 0.0 **** 0.06
5763 H 36.56846758048758 88.19830939331297 59.56218390611056 H 0.0 **** 0.06
5764 H 35.91218183154183 86.84199793946672 60.5107543460247 H 0.0 **** 0.06
5765 H 35.1049607333627 88.42796228009425 60.55093817765382 H 0.0 **** 0.06
5766 C 29.9333730815018 62.14282777456151 94.51325073124855 C 0.0 **** -0.24
5767 H 29.28316161508924 61.44481922518156 95.04016880429367 H 0.0 **** 0.06
5768 H 30.943716224851222 61.735671147790356 94.46991710235278 H 0.0 **** 0.06
5769 H 29.94809815405847 63.096117385578 95.04268696723494 H 0.0 **** 0.06
5770 H 29.559235760394238 62.294989600222266 93.50141351840261 H 0.0 **** 0.06
5771 C 105.27631974962063 91.07911821186215 4.423413251218141 C 0.0 **** -0.24
5772 H 104.69102606666448 90.9981971112405 5.33975199309095 H 0.0 **** 0.06
5773 H 105.77679291698178 90.13070714768114 4.227123532168534 H 0.0 **** 0.06
5774 H 106.02106253652968 91.8661836292957 4.536910891857799 H 0.0 **** 0.06
5775 H 104.61573384905421 91.320674285205 3.5901002481962685 H 0.0 **** 0.06
5776 C 12.197383554963267 8.627264017544121 31.56631400989565 C 0.0 **** -0.24
5777 H 11.175898679616651 8.786290793727716 31.22000961339282 H 0.0 **** 0.06
5778 H 12.89243672744793 9.117344734440906 30.88428060325367 H 0.0 **** 0.06
5779 H 12.408500782358502 7.557871378360346 31.595236696143644 H 0.0 **** 0.06
5780 H 12.311718897959395 9.047405282666176 32.5655854033547 H 0.0 **** 0.06
5781 C 106.14592097739427 37.10264986773957 23.299034096312496 C 0.0 **** -0.24
5782 H 106.65545089662123 37.68797138125327 24.06417756712539 H 0.0 **** 0.06
5783 H 106.47609974646619 37.429199010005505 22.312772861825366 H 0.0 **** 0.06
5784 H 105.06959553745392 37.24840358962868 23.388493287722532 H 0.0 **** 0.06
5785 H 106.38276803107289 36.04738584380785 23.431305891665012 H 0.0 **** 0.06
5786 C 93.50158460073732 42.15412182872653 59.496788507837415 C 0.0 **** -0.24
5787 H 94.16097477217761 42.043820336812956 60.357153952583054 H 0.0 **** 0.06
5788 H 92.89776324896803 43.0540428739685 59.61435749664748 H 0.0 **** 0.06
5789 H 92.84811828218824 41.2845053397846 59.426506881050706 H 0.0 **** 0.06
5790 H 94.0994443299166 42.23345916804814 58.588384991577335 H 0.0 **** 0.06
5791 C 87.66005024659151 4.216696891715401 52.230960047801275 C 0.0 **** -0.24
5792 H 87.36216402658431 4.864755802573114 51.406888448899416 H 0.0 **** 0.06
5793 H 86.89307559174497 3.4600326594666058 52.39300826927537 H 0.0 **** 0.06
5794 H 87.77996318099076 4.813044529741802 53.13639974938327 H 0.0 **** 0.06
5795 H 88.60534996863942 3.73193285077096 51.987625275135684 H 0.0 **** 0.06
5796 C 95.56812517994956 80.0622199759957 106.76807118783773 C 0.0 **** -0.24
5797 H 95.01596976733373 79.82127045929664 107.67666313230893 H 0.0 **** 0.06
5798 H 95.29883736187531 79.35745721138557 105.98088370644774 H 0.0 **** 0.06
5799 H 96.63765823295643 79.99620209124836 106.9663619490021 H 0.0 **** 0.06
5800 H 95.31891107284514 81.074990219722 106.45028765747614 H 0.0 **** 0.06
5801 C 63.519189380435755 70.15868067300204 81.22094219965643 C 0.0 **** -0.24
5802 H 63.656068508302035 70.54862080081088 80.21265090665537 H 0.0 **** 0.06
5803 H 63.669354789991665 69.07845269203335 81.21560288872294 H 0.0 **** 0.06
5804 H 62.510036980890796 70.38427086958873 81.56436179001497 H 0.0 **** 0.06
5805 H 64.24417827669302 70.6229974470705 81.89040816433541 H 0.0 **** 0.06
5806 C 66.8095374070858 49.08086758389743 79.64627137173954 C 0.0 **** -0.24
5807 H 67.34479326571147 48.95969808375173 78.70365332535317 H 0.0 **** 0.06
5808 H 67.40783401734072 49.68629540539092 80.32727203089891 H 0.0 **** 0.06
5809 H 66.63239879314003 48.10086678518303 80.09031637525558 H 0.0 **** 0.06
5810 H 65.85580776418473 49.57400272037569 79.46119838043433 H 0.0 **** 0.06
5811 C 33.9521840225803 42.88655194600412 38.682984846684526 C 0.0 **** -0.24
5812 H 34.19740465283044 43.88401642855434 38.317522059583204 H 0.0 **** 0.06
5813 H 33.4455239328058 42.965990574284355 39.64480896160828 H 0.0 **** 0.06
5814 H 34.86896827809673 42.3086538467947 38.801217687599696 H 0.0 **** 0.06
5815 H 33.298390029549694 42.38910688121551 37.96661246408996 H 0.0 **** 0.06
5816 C 111.80111079970806 36.84447211295512 90.31186884162594 C 0.0 **** -0.24
5817 H 111.23689863490623 37.41371811365576 89.57252842910265 H 0.0 **** 0.06
5818 H 112.02984739123971 37.48490858622657 91.16455597630892 H 0.0 **** 0.06
5819 H 112.72944245533822 36.488990305488926 89.8649509753098 H 0.0 **** 0.06
5820 H 111.20800971790524 35.99267880289608 90.64505924760152 H 0.0 **** 0.06
5821 C 13.25758778527441 115.6043477568554 105.66003011899053 C 0.0 **** -0.24
5822 H 12.983060584861505 114.85345738611595 104.91918598315186 H 0.0 **** 0.06
5823 H 13.769591631142958 115.12254633566413 106.49327321030421 H 0.0 **** 0.06
5824 H 12.357815487389615 116.10008037870047 106.02390994551999 H 0.0 **** 0.06
5825 H 13.918646683787244 116.34056250364956 105.20236695699933 H 0.0 **** 0.06
5826 C 67.83805292492411 51.84122942827355 14.633401909051102 C 0.0 **** -0.24
5827 H 68.36566047499338 52.741158897717355 14.948198268122269 H 0.0 **** 0.06
5828 H 66.93140091525896 51.724419631107594 15.22946930551447 H 0.0 **** 0.06
5829 H 68.4820939854767 50.97353436999606 14.777499055426176 H 0.0 **** 0.06
5830 H 67.57232441543471 51.925489284787545 13.579978838965388 H 0.0 **** 0.06
5831 C 34.92236674828075 2.8847250610953097 80.48008600319702 C 0.0 **** -0.24
5832 H 34.925621981736015 3.408898158784467 81.43598325712023 H 0.0 **** 0.06
5833 H 35.07046558673096 3.60284223070083 79.67220843686692 H 0.0 **** 0.06
5834 H 33.96603458361568 2.379469049803575 80.345833591705 H 0.0 **** 0.06
5835 H 35.726512309605425 2.150492954931636 80.46564391251894 H 0.0 **** 0.06
5836 C 55.612407932680355 106.54226139196535 89.56736666984057 C 0.0 **** -0.24
5837 H 56.02464497238344 106.11418428238358 88.6536871994866 H 0.0 **** 0.06
5838 H 56.416455104441525 106.70784726066202 90.28626178611663 H 0.0 **** 0.06
5839 H 54.880694858532934 105.85527313498827 89.99292830113697 H 0.0 **** 0.06
5840 H 55.12910937905667 107.49174802219639 89.3377644056213 H 0.0 **** 0.06
5841 C 11.930206963525524 50.78419911255605 75.90352784712599 C 0.0 **** -0.24
5842 H 12.09800815744796 51.21038397552854 76.89222382908486 H 0.0 **** 0.06
5843 H 10.923623221522714 51.03328040959718 75.56604702084923 H 0.0 **** 0.06
5844 H 12.03838218687456 49.70039614159958 75.95181700968163 H 0.0 **** 0.06
5845 H 12.659671980278496 51.19041961589568 75.2024969711284 H 0.0 **** 0.06
5846 C 56.16294095350054 43.14277303121537 19.16653330104438 C 0.0 **** -0.24
5847 H 56.082088781542495 42.352845027029105 19.91468794413109 H 0.0 **** 0.06
5848 H 56.86757985357809 42.83865385423553 18.392789744442524 H 0.0 **** 0.06
5849 H 56.5166469493613 44.05753471343411 19.641975929650158 H 0.0 **** 0.06
5850 H 55.18484474553094 43.32056674806313 18.719906218021833 H 0.0 **** 0.06
5851 C 103.41525931383046 118.0463454536496 42.64708428781614 C 0.0 **** -0.24
5852 H 102.422110971282 117.74011221549918 42.31864687156906 H 0.0 **** 0.06
5853 H 103.42039316110811 118.16011619606019 43.73204029980619 H 0.0 **** 0.06
5854 H 103.67482684135922 118.99675541746447 42.18120861269341 H 0.0 **** 0.06
5855 H 104.14302903633734 117.28819073816115 42.35766550138719 H 0.0 **** 0.06
5856 C 42.897160515135624 19.320255807797906 24.48596922414731 C 0.0 **** -0.24
5857 H 42.76090644994065 19.69616373093109 23.471288628545324 H 0.0 **** 0.06
5858 H 42.04485831772939 19.612920661311136 25.09887524872704 H 0.0 **** 0.06
5859 H 43.81063315677693 19.737671984025454 24.908573044332968 H 0.0 **** 0.06
5860 H 42.97141353563961 18.232280418586384 24.462247755279634 H 0.0 **** 0.06
5861 C 9.150896193300753 113.89076756454419 61.87739552266606 C 0.0 **** -0.24
5862 H 8.246120105719456 113.89563381705734 62.48489786565136 H 0.0 **** 0.06
5863 H 8.932714016254977 114.31541882019866 60.89756777678667 H 0.0 **** 0.06
5864 H 9.503487918092162 112.86570947019119 61.75879278958189 H 0.0 **** 0.06
5865 H 9.92136276961088 114.48547726772676 62.368871093295496 H 0.0 **** 0.06
5866 C 6.729413957803132 93.25596843460403 95.98023904901427 C 0.0 **** -0.24
5867 H 6.554064231203256 92.8924369167388 96.99264058195428 H 0.0 **** 0.06
5868 H 7.043508312661885 92.42719914504903 95.34547547898129 H 0.0 **** 0.06
5869 H 7.508965857337117 94.01777614431188 95.99748529659243 H 0.0 **** 0.06
5870 H 5.8087446393277276 93.68706847264156 95.58531195301634 H 0.0 **** 0.06
5871 C 56.91620615061705 97.4143228618453 40.819331175051445 C 0.0 **** -0.24
5872 H 56.3587465549196 96.49886407590924 40.621870893228134 H 0.0 **** 0.06
5873 H 56.69662609751054 97.76260708613475 41.82854337482232 H 0.0 **** 0.06
5874 H 56.62515612109342 98.1793467265179 40.09892296701349 H 0.0 **** 0.06
5875 H 57.984382762604916 97.2153503951624 40.726334836879744 H 0.0 **** 0.06
5876 C 66.9631520554679 116.28944663779379 116.97359493599393 C 0.0 **** -0.24
5877 H 67.65912808507304 116.4682272813535 117.79341286521763 H 0.0 **** 0.06
5878 H 67.1387834053728 115.29688386515994 116.55808636323454 H 0.0 **** 0.06
5879 H 67.1134959339168 117.0407413608213 116.19820823473479 H 0.0 **** 0.06
5880 H 65.94049210745146 116.35147738223458 117.34580776997718 H 0.0 **** 0.06
5881 C 13.888564603127591 33.677979169680164 92.4677955944764 C 0.0 **** -0.24
5882 H 12.859373037484374 33.31906316573504 92.48324239973121 H 0.0 **** 0.06
5883 H 14.414875755327301 33.23551982196753 91.62076431357528 H 0.0 **** 0.06
5884 H 14.38656603573331 33.392509424826244 93.39446229474657 H 0.0 **** 0.06
5885 H 13.893746174421864 34.7639211778501 92.37240852723642 H 0.0 **** 0.06
5886 C 118.47804405910793 15.206863862095844 71.8748619368879 C 0.0 **** -0.24
5887 H 118.86418519551279 14.794382087894093 72.80726925604432 H 0.0 **** 0.06
5888 H 119.28514031053774 15.271608991369106 71.14458231554016 H 0.0 **** 0.06
5889 H 118.07274195100541 16.201887109585158 72.05821269069057 H 0.0 **** 0.06
5890 H 117.69060463221007 14.559191616074713 71.49016160329248 H 0.0 **** 0.06
5891 C 85.52347287928029 69.86106571703547 1.0349268875887958 C 0.0 **** -0.24
5892 H 85.32959318737386 70.92950112850929 0.9397427937632443 H 0.0 **** 0.06
5893 H 84.58495876734347 69.33629602661003 1.2156134839146375 H 0.0 **** 0.06
5894 H 86.2034529630148 69.68823720627873 1.8684668674973608 H 0.0 **** 0.06
5895 H 85.97527936894576 69.49104116244263 0.11416071839369124 H 0.0 **** 0.06
5896 C 30.490328472628505 63.029431977906626 43.4332435379649 C 0.0 **** -0.24
5897 H 31.556608571721227 62.84826883807517 43.57122280376771 H 0.0 **** 0.06
5898 H 30.112333006779807 63.623745231965984 44.26543028598772 H 0.0 **** 0.06
5899 H 29.96266103225912 62.075942129212194 43.39793359316954 H 0.0 **** 0.06
5900 H 30.33049960589898 63.56771514266492 42.49945957633335 H 0.0 **** 0.06
5901 C 74.04909991920854 57.87076155159309 82.59788782987908 C 0.0 **** -0.24
5902 H 74.6317850783339 58.56851818226562 81.99606286624962 H 0.0 **** 0.06
5903 H 74.42119776002289 56.85764403791683 82.44208112175528 H 0.0 **** 0.06
5904 H 73.00139053188335 57.92340557584143 82.30174053616747 H 0.0 **** 0.06
5905 H 74.14185171019918 58.13486505860428 83.6514503702283 H 0.0 **** 0.06
5906 C 8.192209349630097 115.29619344079694 32.71688132514305 C 0.0 **** -0.24
5907 H 9.01500801694971 115.93166776617798 33.044915352848534 H 0.0 **** 0.06
5908 H 7.885266083502941 114.64694628807527 33.53689140936052 H 0.0 **** 0.06
5909 H 8.516570269682703 114.68792266363442 31.872418633731115 H 0.0 **** 0.06
5910 H 7.350860658265567 115.92039282954781 32.413034040868354 H 0.0 **** 0.06
5911 C 108.45833771280951 28.89609596319022 12.590514125622935 C 0.0 **** -0.24
5912 H 109.01881442536097 29.40824787485039 13.371816097283297 H 0.0 **** 0.06
5913 H 109.01392965795011 28.017441799928946 12.261199559839561 H 0.0 **** 0.06
5914 H 108.31082192307994 29.57045900552808 11.747981605354447 H 0.0 **** 0.06
5915 H 107.48897889878324 28.58715380100702 12.982842882223114 H 0.0 **** 0.06
5916 C 74.60135012190702 89.63131830017744 23.72504507051741 C 0.0 **** -0.24
5917 H 74.34004620185837 90.68736282846149 23.645938292196234 H 0.0 **** 0.06
5918 H 73.92971574646191 89.14288501837692 24.4301881006688 H 0.0 **** 0.06
5919 H 75.62889235106229 89.53781761667858 24.076512223205583 H 0.0 **** 0.06
5920 H 74.50780103837232 89.16036658324424 22.745835851632705 H 0.0 **** 0.06
5921 C 66.52945492274611 26.562963313411245 33.67565853803752 C 0.0 **** -0.24
5922 H 66.43585073468972 25.517717129432377 33.96987992801902 H 0.0 **** 0.06
5923 H 65.68997602626587 26.83708177431079 33.03540708770192 H 0.0 **** 0.06
5924 H 67.46302066928803 26.705908697691704 33.13091068821893 H 0.0 **** 0.06
5925 H 66.52842617918367 27.192579505720744 34.565632685361166 H 0.0 **** 0.06
5926 C 106.15515130515575 6.186878407288418 18.933121237121128 C 0.0 **** -0.24
5927 H 106.66728467848671 5.4837389976144095 18.27616693293882 H 0.0 **** 0.06
5928 H 106.44527785555002 7.2050496839008815 18.67211270018663 H 0.0 **** 0.06
5929 H 106.43116438095186 5.9829838854634545 19.96725387926513 H 0.0 **** 0.06
5930 H 105.07733085489178 6.073504091013717 18.816061767311055 H 0.0 **** 0.06
5931 C 74.9853645181611 116.46809072410215 118.8320924930672 C 0.0 **** -0.24
5932 H 76.05618421798727 116.66105326249638 118.88912881704547 H 0.0 **** 0.06
5933 H 74.79405605347276 115.69370357874365 118.08850238153586 H 0.0 **** 0.06
5934 H 74.46655015250954 117.38305598284231 118.54514331338062 H 0.0 **** 0.06
5935 H 74.6243555334419 116.13484878648384 119.80469356647059 H 0.0 **** 0.06
5936 C 37.324408631120065 51.128261270092466 2.1001523782912273 C 0.0 **** -0.24
5937 H 37.46527664581291 50.33178168184227 2.8305570705311993 H 0.0 **** 0.06
5938 H 36.32154508341526 51.059275437924526 1.6769629223742868 H 0.0 **** 0.06
5939 H 38.06223924636751 51.0249400433523 1.3042947921712766 H 0.0 **** 0.06
5940 H 37.44773956574011 52.095278708891726 2.587710907673909 H 0.0 **** 0.06
5941 C 84.5741941207886 12.51670194806519 102.84217359687773 C 0.0 **** -0.24
5942 H 84.86491450959653 12.836638209588727 101.8424326748108 H 0.0 **** 0.06
5943 H 83.5431375264921 12.164346459015164 102.8254869777954 H 0.0 **** 0.06
5944 H 84.66107584111131 13.35633407848971 103.53142535926068 H 0.0 **** 0.06
5945 H 85.22908278813145 11.708222225887127 103.16993120433696 H 0.0 **** 0.06
5946 C 74.8407871976589 64.48378014480164 99.60630110475589 C 0.0 **** -0.24
5947 H 75.12903650656361 63.44545024004842 99.76732550663189 H 0.0 **** 0.06
5948 H 73.9820076867116 64.72377966450895 100.23347378556124 H 0.0 **** 0.06
5949 H 74.57759393026649 64.6289037560172 98.55731913995422 H 0.0 **** 0.06
5950 H 75.67444230180553 65.13699811397547 99.86535527126458 H 0.0 **** 0.06
5951 C 63.0950517012048 49.53525432362241 70.29540934539577 C 0.0 **** -0.24
5952 H 63.0376806638102 50.08109882184178 69.35325757257556 H 0.0 **** 0.06
5953 H 63.77123084245775 50.053613964924466 70.9749875964398 H 0.0 **** 0.06
5954 H 63.46672402973385 48.52799468254965 70.11006856721218 H 0.0 **** 0.06
5955 H 62.10207259085809 49.47984114836677 70.74268162918852 H 0.0 **** 0.06
5956 C 70.90735028239763 42.42523634100982 104.75623352849777 C 0.0 **** -0.24
5957 H 70.04384022447965 42.94638932406767 105.16994059270934 H 0.0 **** 0.06
5958 H 71.29833972488191 41.72615051103344 105.49546138540916 H 0.0 **** 0.06
5959 H 71.67955994675688 43.14975143216063 104.49692539568605 H 0.0 **** 0.06
5960 H 70.60709781070571 41.87954530459639 103.86166417956437 H 0.0 **** 0.06
5961 C 115.9600691977583 63.12693858927983 10.510423268869715 C 0.0 **** -0.24
5962 H 116.0366954796799 62.372552851455964 11.293976833668353 H 0.0 **** 0.06
5963 H 116.26022153653231 64.0960493065115 10.908911108063421 H 0.0 **** 0.06
5964 H 114.93084216392919 63.18205962658817 10.1576855826072 H 0.0 **** 0.06
5965 H 116.61457105270179 62.85663594050581 9.681877941994173 H 0.0 **** 0.06
5966 C 43.78986852672607 93.1841376941208 16.9737080461893 C 0.0 **** -0.24
5967 H 43.01875012804328 93.84841185000647 16.583069015222875 H 0.0 **** 0.06
5968 H 43.75360142787248 93.18765988935633 18.063320311638066 H 0.0 **** 0.06
5969 H 44.769016211364615 93.52798991520535 16.640340335222902 H 0.0 **** 0.06
5970 H 43.61587520196488 92.171582479829 16.607654888644248 H 0.0 **** 0.06
5971 C 101.56565196539728 23.03435959100645 68.94654466402491 C 0.0 **** -0.24
5972 H 101.55122995370411 23.87995008859596 69.63287707523403 H 0.0 **** 0.06
5973 H 100.64938807767072 22.454564930538737 69.06480413183431 H 0.0 **** 0.06
5974 H 102.42640610788152 22.403333924591436 69.16576927031474 H 0.0 **** 0.06
5975 H 101.63491314252622 23.398961939158 67.92165267545926 H 0.0 **** 0.06
5976 C 94.84257398826992 72.83690773008863 21.351754846844358 C 0.0 **** -0.24
5977 H 95.74275066621632 72.37943379761683 20.941780342699047 H 0.0 **** 0.06
5978 H 94.96264238132585 72.97394764155791 22.42696984024812 H 0.0 **** 0.06
5979 H 93.98653862868832 72.1908817499228 21.160419051844656 H 0.0 **** 0.06
5980 H 94.67996451787289 73.80490160319835 20.8781447002456 H 0.0 **** 0.06
5981 C 13.26257722252447 88.10197186888712 92.08536919099384 C 0.0 **** -0.24
5982 H 12.783945517545106 88.78590117916005 91.38495936889768 H 0.0 **** 0.06
5983 H 14.049412715683843 88.6285339534227 92.62688644449315 H 0.0 **** 0.06
5984 H 13.694771459316314 87.26490271650007 91.53841685393607 H 0.0 **** 0.06
5985 H 12.521521380154184 87.72891260766423 92.79332023380212 H 0.0 **** 0.06
5986 C 94.12344979754309 24.611605777958616 7.353152334943275 C 0.0 **** -0.24
5987 H 93.76741342173847 25.50562946937154 7.863900058690746 H 0.0 **** 0.06
5988 H 94.95348558978458 24.18012496736779 7.914615242018812 H 0.0 **** 0.06
5989 H 94.46051448358506 24.874727555128686 6.350140399584518 H 0.0 **** 0.06
5990 H 93.31426113836503 23.88459781501672 7.285871651800036 H 0.0 **** 0.06
5991 C 78.78206625175119 12.13333314789589 63.16874761504071 C 0.0 **** -0.24
5992 H 79.5767393578422 12.831946999721872 62.90457914065417 H 0.0 **** 0.06
5993 H 79.01179219234305 11.150732820365878 62.7569950909492 H 0.0 **** 0.06
5994 H 77.83654682879424 12.487438737161888 62.75845406113792 H 0.0 **** 0.06
5995 H 78.7053179856616 12.0645820734639 64.25370270244323 H 0.0 **** 0.06
5996 C 106.12783559384579 70.42941049401347 29.806334703146902 C 0.0 **** -0.24
5997 H 106.61697735849486 71.10670948869009 29.10514851813238 H 0.0 **** 0.06
5998 H 105.5877403924978 71.01022371633908 30.5539467253555 H 0.0 **** 0.06
5999 H 106.87884294061283 69.811464786594 30.298539578057543 H 0.0 **** 0.06
6000 H 105.42889723557326 69.79139340067681 29.265933092678097 H 0.0 **** 0.06
6001 C 98.07226125826134 107.38043184656038 1.0492651714000658 C 0.0 **** -0.24
6002 H 98.34305509363742 106.58494590088907 0.3544102024691682 H 0.0 **** 0.06
6003 H 97.6894089624958 108.23567812218954 0.4911454890240634 H 0.0 **** 0.06
6004 H 98.95247593340105 107.68100714893791 1.617673641499664 H 0.0 **** 0.06
6005 H 97.3038679693936 107.01898662720015 1.7329871194560411 H 0.0 **** 0.06
6006 C 12.481417807152269 20.40729144627487 15.214461413683978 C 0.0 **** -0.24
6007 H 12.693274472982466 19.359628510985274 15.000534545888286 H 0.0 **** 0.06
6008 H 13.330681334973974 20.84967204359546 15.73574010162389 H 0.0 **** 0.06
6009 H 11.592845143045906 20.4774097949049 15.841838179008391 H 0.0 **** 0.06
6010 H 12.310504017751242 20.942148108040186 14.280219262771709 H 0.0 **** 0.06
6011 C 48.80901659682027 46.73981364078483 65.33455166392199 C 0.0 **** -0.24
6012 H 48.82928817025126 46.579004645313375 66.41257258992735 H 0.0 **** 0.06
6013 H 49.29780349407747 47.68562122396165 65.09898637816733 H 0.0 **** 0.06
6014 H 47.77513785613195 46.77054234523632 64.99156911417487 H 0.0 **** 0.06
6015 H 49.333245523928525 45.92560303409488 64.83567031191924 H 0.0 **** 0.06
6016 C 12.265012295275653 23.11263095476386 40.403034121532414 C 0.0 **** -0.24
6017 H 13.025843453921766 23.64083161419557 40.97803986360583 H 0.0 **** 0.06
6018 H 12.729639354922412 22.625779196455184 39.546189578717815 H 0.0 **** 0.06
6019 H 11.515485873859518 23.82349779033467 40.055003859420424 H 0.0 **** 0.06
6020 H 11.789148893782041 22.362020155573084 41.03475246776918 H 0.0 **** 0.06
6021 C 31.34561336005146 83.80971551642392 66.65762174709693 C 0.0 **** -0.24
6022 H 31.368206986599375 84.8690570384291 66.39961844090575 H 0.0 **** 0.06
6023 H 31.260154772096655 83.70151428183766 67.73950435278988 H 0.0 **** 0.06
6024 H 32.26406790662912 83.33353417422461 66.31613664468915 H 0.0 **** 0.06
6025 H 30.489781507200746 83.3368567535941 66.17646484206622 H 0.0 **** 0.06
6026 C 67.61443533374941 104.39198404894154 23.808061832919407 C 0.0 **** -0.24
6027 H 66.9345072167051 103.73536152146545 24.350758040568223 H 0.0 **** 0.06
6028 H 68.25923674332705 103.79517318151949 23.16311339411294 H 0.0 **** 0.06
6029 H 68.22464540551496 104.94952061599543 24.518411180915905 H 0.0 **** 0.06
6030 H 67.03649430369242 105.0886758498329 23.200414484126668 H 0.0 **** 0.06
6031 C 32.42938770260642 92.29776455615331 113.2598523156571 C 0.0 **** -0.24
6032 H 31.55368501039004 92.40951912360515 113.89958296978403 H 0.0 **** 0.06
6033 H 32.45766071449529 91.28539073790324 112.8566607140877 H 0.0 **** 0.06
6034 H 33.33095149888453 92.48238747056831 113.84534763069172 H 0.0 **** 0.06
6035 H 32.375296866036166 93.014062105709 112.44080256270405 H 0.0 **** 0.06
6036 C 44.72475731707496 88.33591814576772 105.61958894059467 C 0.0 **** -0.24
6037 H 44.54899527299398 88.51096314530804 106.68116349895132 H 0.0 **** 0.06
6038 H 43.78444474001088 88.08072854486994 105.13242879416063 H 0.0 **** 0.06
6039 H 45.43178824994635 87.51425317608584 105.49908337472422 H 0.0 **** 0.06
6040 H 45.136240824515625 89.23780221265014 105.16588523876271 H 0.0 **** 0.06
6041 C 104.33319771109069 55.29724146900037 40.1559312512116 C 0.0 **** -0.24
6042 H 104.04636450104042 54.32859068548453 39.74589592025393 H 0.0 **** 0.06
6043 H 105.13678734575001 55.16123369211584 40.880849350043434 H 0.0 **** 0.06
6044 H 103.47356710767792 55.75338477248209 40.646306664832025 H 0.0 **** 0.06
6045 H 104.6766847354549 55.94477768194912 39.34904024166195 H 0.0 **** 0.06
6046 C 52.635017930321595 20.729137536991487 27.350457514722223 C 0.0 **** -0.24
6047 H 53.427330173547176 20.067255065328595 27.700845160600835 H 0.0 **** 0.06
6048 H 52.85374183960084 21.751252965965165 27.65959093546678 H 0.0 **** 0.06
6049 H 51.6834028119203 20.41491015109034 27.778901644401117 H 0.0 **** 0.06
6050 H 52.57725583244826 20.683232101551226 26.262980251866082 H 0.0 **** 0.06
6051 C 50.400841463068645 82.80710741381426 117.69028451871282 C 0.0 **** -0.24
6052 H 50.431679210150406 83.17009833299824 116.66237583315078 H 0.0 **** 0.06
6053 H 50.39333712688634 81.71690704277893 117.68962579716722 H 0.0 **** 0.06
6054 H 49.50011070717673 83.17671723300998 118.17887040751526 H 0.0 **** 0.06
6055 H 51.27861625337559 83.16505104022764 118.22748401045524 H 0.0 **** 0.06
6056 C 53.49054898173247 0.3274472478465338 108.55368796975378 C 0.0 **** -0.24
6057 H 53.920039943937894 -0.46211895429458494 109.16905469321335 H 0.0 **** 0.06
6058 H 53.60769761920858 0.07254085418646028 107.50031125261648 H 0.0 **** 0.06
6059 H 54.00216119621288 1.2675058250637221 108.76004052940644 H 0.0 **** 0.06
6060 H 52.4307628660051 0.4331899080388979 108.78671689258016 H 0.0 **** 0.06
6061 C 17.486824520283918 28.511962982247567 90.48990918265793 C 0.0 **** -0.24
6062 H 16.844961441261873 28.175018938586817 89.67546697391577 H 0.0 **** 0.06
6063 H 18.215806394321135 27.73598475259044 90.72213051544907 H 0.0 **** 0.06
6064 H 16.877466073798857 28.71515486663732 91.3707519232459 H 0.0 **** 0.06
6065 H 18.006299473739347 29.42240060290041 90.19036168569545 H 0.0 **** 0.06
6066 C 87.3701483843943 61.483121749422935 8.21482285825067 C 0.0 **** -0.24
6067 H 87.63953587156706 62.44744105392101 7.782372501021541 H 0.0 **** 0.06
6068 H 86.9112332730505 60.85792970622299 7.44833577436998 H 0.0 **** 0.06
6069 H 86.66419932178613 61.63501978815344 9.03108902446155 H 0.0 **** 0.06
6070 H 88.26628781362805 60.99382353433111 8.594929267530631 H 0.0 **** 0.06
6071 C 57.34515824045454 48.271973949839975 67.29106132091997 C 0.0 **** -0.24
6072 H 57.13605928211891 49.341944246050105 67.30254149998103 H 0.0 **** 0.06
6073 H 56.85480389441898 47.797398319218786 68.14053298419691 H 0.0 **** 0.06
6074 H 58.42149056206932 48.11284626910583 67.35567306261697 H 0.0 **** 0.06
6075 H 56.96876941056385 47.83878923958426 66.36399440646395 H 0.0 **** 0.06
6076 C 109.74064731179762 31.624731229230406 93.86512945192047 C 0.0 **** -0.24
6077 H 110.33450958500839 32.02531756150697 94.68640451709243 H 0.0 **** 0.06
6078 H 109.70258649231559 32.35411377376076 93.05559928754303 H 0.0 **** 0.06
6079 H 108.72993125963669 31.416901717880705 94.21565833309018 H 0.0 **** 0.06
6080 H 110.19652974559945 30.70281646082651 93.50296928958088 H 0.0 **** 0.06
6081 C 1.0014094199813552 48.484671574196724 73.41900670031183 C 0.0 **** -0.24
6082 H 0.6470865036818587 49.162719346826584 74.19577635159538 H 0.0 **** 0.06
6083 H 0.870325667645707 48.9512235122588 72.44251045068955 H 0.0 **** 0.06
6084 H 0.42998949485596505 47.55713075388529 73.45967473089945 H 0.0 **** 0.06
6085 H 2.0574756000043593 48.26881763281159 73.57978868375795 H 0.0 **** 0.06
6086 C 117.9445901959727 82.60760014479382 13.052830444174901 C 0.0 **** -0.24
6087 H 118.16482080042147 81.90170704502685 12.251927835022116 H 0.0 **** 0.06
6088 H 118.87656479129191 82.99229895137347 13.46522305484558 H 0.0 **** 0.06
6089 H 117.38007890202869 82.10293701251675 13.836234957380668 H 0.0 **** 0.06
6090 H 117.35479678978908 83.43440131630314 12.65498596988212 H 0.0 **** 0.06
6091 C 101.73107355100211 116.4014182271841 61.15647896869937 C 0.0 **** -0.24
6092 H 101.41715250592034 117.2273794343731 61.79639174123208 H 0.0 **** 0.06
6093 H 101.29490759700474 116.52528678830842 60.164393029955754 H 0.0 **** 0.06
6094 H 101.39191858984162 115.46029682466583 61.58774675877013 H 0.0 **** 0.06
6095 H 102.81807666147654 116.39592043065682 61.0786807985393 H 0.0 **** 0.06
6096 C 16.438250251672983 101.41631257257455 47.39843964585076 C 0.0 **** -0.24
6097 H 17.01493179160991 102.01685933760723 48.102192852748544 H 0.0 **** 0.06
6098 H 15.437153761187872 101.83605366519225 47.300185908425306 H 0.0 **** 0.06
6099 H 16.369383371922297 100.3929381980048 47.767335041170185 H 0.0 **** 0.06
6100 H 16.9326423979914 101.42045871079799 46.427457290523435 H 0.0 **** 0.06
6101 C 86.00741557173217 73.12909614354027 3.7580592717823293 C 0.0 **** -0.24
6102 H 85.69809679449907 72.97916746231141 4.79215347396223 H 0.0 **** 0.06
6103 H 86.02497381045896 72.16906176430405 3.2415127504621495 H 0.0 **** 0.06
6104 H 87.00377365876045 73.57107351657322 3.73722283531184 H 0.0 **** 0.06
6105 H 85.30368750980801 73.79598408252747 3.261545659688096 H 0.0 **** 0.06
6106 C 36.57904443933299 46.704073369470144 88.39836705021344 C 0.0 **** -0.24
6107 H 35.869110842697616 46.588450660376616 89.21689817588825 H 0.0 **** 0.06
6108 H 37.56064819414439 46.95388521721173 88.80124753867506 H 0.0 **** 0.06
6109 H 36.2428826363156 47.5028112984455 87.73643684777278 H 0.0 **** 0.06
6110 H 36.642829889377914 45.7709592560661 87.83820273197676 H 0.0 **** 0.06
6111 C 62.44050117243952 24.030723986773154 51.104431249784795 C 0.0 **** -0.24
6112 H 63.11837836556493 24.565936197425316 51.76962144066252 H 0.0 **** 0.06
6113 H 61.585284293106504 23.666984349730825 51.674213795790706 H 0.0 **** 0.06
6114 H 62.96444924941836 23.185813959767792 50.65536650793638 H 0.0 **** 0.06
6115 H 62.09532431789395 24.702322928295914 50.31927885350473 H 0.0 **** 0.06
6116 C 65.05413511852771 23.90956796656321 27.822506671979994 C 0.0 **** -0.24
6117 H 64.6867456729019 23.40505066931034 26.927901752234874 H 0.0 **** 0.06
6118 H 65.7078847475725 24.731701153312095 27.532996815960587 H 0.0 **** 0.06
6119 H 65.61045662869071 23.200576282639616 28.43546892691731 H 0.0 **** 0.06
6120 H 64.21044359075768 24.297895527673973 28.39173843036079 H 0.0 **** 0.06
6121 C 21.382344867899093 47.892845981849405 118.25985415530312 C 0.0 **** -0.24
6122 H 21.72960614510376 48.84965462239143 117.87117260958073 H 0.0 **** 0.06
6123 H 20.60870026885732 47.494031258211606 117.60259354810421 H 0.0 **** 0.06
6124 H 20.97123349212768 48.03477851953801 119.25955270344326 H 0.0 **** 0.06
6125 H 22.216769865088025 47.19363622535927 118.30584503741557 H 0.0 **** 0.06
6126 C 19.93685618489467 45.054626708747634 115.29823520235284 C 0.0 **** -0.24
6127 H 19.89729921872144 46.13356618982712 115.44550152060143 H 0.0 **** 0.06
6128 H 19.75272897051284 44.82405176969999 114.24845475176876 H 0.0 **** 0.06
6129 H 19.17476657737731 44.5755831862995 115.91375154066654 H 0.0 **** 0.06
6130 H 20.92128736506731 44.68430599117798 115.58478781816338 H 0.0 **** 0.06
6131 C 79.65896929552585 50.880536044302886 35.15353731153247 C 0.0 **** -0.24
6132 H 78.93412219355051 50.66278644894675 35.93764657365606 H 0.0 **** 0.06
6133 H 79.14815797685148 50.933077762236934 34.19153066140155 H 0.0 **** 0.06
6134 H 80.40955863530272 50.090741932203855 35.12361290802248 H 0.0 **** 0.06
6135 H 80.14375275977528 51.83480899885873 35.360737018069734 H 0.0 **** 0.06
6136 C 30.467575622702952 23.278044198816076 16.59497813799902 C 0.0 **** -0.24
6137 H 29.724336490616963 23.031667626265474 17.35339738758944 H 0.0 **** 0.06
6138 H 31.443788210795958 23.39343759342944 17.066791622445038 H 0.0 **** 0.06
6139 H 30.189407920083113 24.209887709644747 16.10262260486968 H 0.0 **** 0.06
6140 H 30.51262407089041 22.476219673281083 15.857322598824908 H 0.0 **** 0.06
6141 C 86.81816306481127 58.573454571527144 11.951749348165244 C 0.0 **** -0.24
6142 H 86.95070283445801 58.80650817467808 10.894884721006093 H 0.0 **** 0.06
6143 H 86.02666390254453 57.83288813440655 12.063784878395648 H 0.0 **** 0.06
6144 H 86.54724216529877 59.48059519043513 12.4921939330759 H 0.0 **** 0.06
6145 H 87.74910796831679 58.17508557713844 12.354623118058448 H 0.0 **** 0.06
6146 C 14.227914542324228 27.276652331901516 45.196128465639674 C 0.0 **** -0.24
6147 H 15.050822882833472 27.852203250693634 45.619653618524524 H 0.0 **** 0.06
6148 H 13.393845941123743 27.943243092096992 44.9750810919698 H 0.0 **** 0.06
6149 H 13.907829919153897 26.519727925581407 45.91246768096778 H 0.0 **** 0.06
6150 H 14.558288491972007 26.790965435925358 44.27832193864151 H 0.0 **** 0.06
6151 C 36.722737800859214 62.74404180656086 19.6195258926102 C 0.0 **** -0.24
6152 H 36.96101244080187 61.852983685342195 20.19950014447133 H 0.0 **** 0.06
6153 H 37.6374106188248 63.30372940004665 19.42375815063238 H 0.0 **** 0.06
6154 H 36.027043359300535 63.36759939607302 20.180383898937606 H 0.0 **** 0.06
6155 H 36.26720232632888 62.45050763003596 18.673975964458236 H 0.0 **** 0.06
6156 C 81.75734442544228 9.06001425722883 66.05512513234305 C 0.0 **** -0.24
6157 H 80.67810788615316 8.910890107699458 66.02859165220451 H 0.0 **** 0.06
6158 H 82.17600174874272 8.86207796338769 65.06776860602017 H 0.0 **** 0.06
6159 H 82.20026625073106 8.379142757315293 66.78206105270593 H 0.0 **** 0.06
6160 H 81.9741133331994 10.089046095900727 66.34210996437602 H 0.0 **** 0.06
6161 C 117.40907243443418 112.13354071056372 86.01739862253089 C 0.0 **** -0.24
6162 H 117.02811046197536 113.08121076053206 85.63606798952316 H 0.0 **** 0.06
6163 H 118.21666212858452 111.78271114893201 85.37561048032705 H 0.0 **** 0.06
6164 H 116.60520980234523 111.39689802332441 86.02745040099876 H 0.0 **** 0.06
6165 H 117.78398525175652 112.2749331473081 87.03074756931073 H 0.0 **** 0.06
6166 C 118.76430955843627 34.68401369720941 99.59677415132347 C 0.0 **** -0.24
6167 H 118.04380731341604 34.05848135565546 99.07013921735532 H 0.0 **** 0.06
6168 H 119.17544213525645 34.1312031701129 100.4425898568488 H 0.0 **** 0.06
6169 H 118.26869500170238 35.58467910927988 99.95697479891027 H 0.0 **** 0.06
6170 H 119.57073390124282 34.95998246588863 98.91747482336461 H 0.0 **** 0.06
6171 C 2.186338425116796 113.40177948007701 101.76181397182816 C 0.0 **** -0.24
6172 H 2.2775222871358913 113.39182689233775 100.6760101329929 H 0.0 **** 0.06
6173 H 2.4042816791469654 112.4088840696424 102.15390318487928 H 0.0 **** 0.06
6174 H 1.1705156889260184 113.688114772132 102.03753293003041 H 0.0 **** 0.06
6175 H 2.8914350127687687 114.12121728272207 102.1788675098482 H 0.0 **** 0.06
6176 C 33.19772724517503 102.23532827472172 92.12043268779175 C 0.0 **** -0.24
6177 H 32.459389269226676 102.18399456320728 91.31972269028145 H 0.0 **** 0.06
6178 H 33.23863038959081 101.27776446588402 92.63959841844414 H 0.0 **** 0.06
6179 H 32.915699698040356 103.0188703149966 92.82337214014169 H 0.0 **** 0.06
6180 H 34.17666239785868 102.46255594984771 91.69675332947614 H 0.0 **** 0.06
6181 C 86.21714266678325 81.12344466985155 19.361972606054138 C 0.0 **** -0.24
6182 H 86.99545081481841 81.34765478294779 20.09146134900606 H 0.0 **** 0.06
6183 H 86.57619865024333 81.36888630841801 18.361454292965835 H 0.0 **** 0.06
6184 H 85.32967879627267 81.7144918833686 19.58476073194954 H 0.0 **** 0.06
6185 H 85.96926660178553 80.063242683569 19.4094041519234 H 0.0 **** 0.06
6186 C 101.43621523679232 28.40344923440162 40.76936413742648 C 0.0 **** -0.24
6187 H 102.51730195169154 28.324394501733167 40.65239633361969 H 0.0 **** 0.06
6188 H 101.1934359790329 29.333438016603992 41.28429007091361 H 0.0 **** 0.06
6189 H 101.07151652685778 27.558046694133225 41.35296329488426 H 0.0 **** 0.06
6190 H 100.96398241153449 28.39789802168326 39.78675488724551 H 0.0 **** 0.06
6191 C 61.676697642801 99.45679693728471 71.34779828834053 C 0.0 **** -0.24
6192 H 61.55137756600246 100.53629156749119 71.43591656408458 H 0.0 **** 0.06
6193 H 61.10718701575212 99.09515970652618 70.4915654126747 H 0.0 **** 0.06
6194 H 61.31483692734767 98.97416497678637 72.2556125737251 H 0.0 **** 0.06
6195 H 62.73232647745783 99.22437445229465 71.20797657829533 H 0.0 **** 0.06
6196 C 78.23043285380965 115.45385322357758 72.66753575986797 C 0.0 **** -0.24
6197 H 78.86030091124451 114.70275029377311 72.19253144879806 H 0.0 **** 0.06
6198 H 78.8083109192489 116.36511190771294 72.8255996474785 H 0.0 **** 0.06
6199 H 77.87658705046422 115.07753847900882 73.62763260871122 H 0.0 **** 0.06
6200 H 77.37670972331878 115.67037820883746 72.02606302904158 H 0.0 **** 0.06
6201 C 37.69223469284559 26.15771563325518 97.40928549243216 C 0.0 **** -0.24
6202 H 36.82703976536205 26.012445494386576 98.05495166202527 H 0.0 **** 0.06
6203 H 37.38207273235581 26.6627789328464 96.49443020359746 H 0.0 **** 0.06
6204 H 38.125300888725384 25.188682854105814 97.16060752749718 H 0.0 **** 0.06
6205 H 38.434041509999204 26.765656999549982 97.92686880987179 H 0.0 **** 0.06
6206 C 94.4301750527402 67.53205411789673 14.217926867127574 C 0.0 **** -0.24
6207 H 93.37613070700735 67.74490363874799 14.03988989736726 H 0.0 **** 0.06
6208 H 95.02501585115556 68.41194996492254 13.970770332069634 H 0.0 **** 0.06
6209 H 94.74166586589809 66.69433612532157 13.593400126185685 H 0.0 **** 0.06
6210 H 94.57657115843335 67.27660277672459 15.267941832311692 H 0.0 **** 0.06
6211 C 20.76496023290106 46.39099420456057 100.60764859975706 C 0.0 **** -0.24
6212 H 21.78278860575206 46.6343222543274 100.91414410147539 H 0.0 **** 0.06
6213 H 20.058209978811547 46.96081501569887 101.21108617233608 H 0.0 **** 0.06
6214 H 20.588564323529454 45.32442529182464 100.75151618375236 H 0.0 **** 0.06
6215 H 20.63202396239386 46.642996267232206 99.55628549111609 H 0.0 **** 0.06
6216 C 38.69819020645994 44.07967919111715 4.324790347361395 C 0.0 **** -0.24
6217 H 37.61461302811972 44.15469987151175 4.410486947582077 H 0.0 **** 0.06
6218 H 39.043043133275404 44.7192904351549 3.511870591655894 H 0.0 **** 0.06
6219 H 38.97618669275971 43.04672414813106 4.1178209193129405 H 0.0 **** 0.06
6220 H 39.15874882987444 44.399948556997714 5.259411587660795 H 0.0 **** 0.06
6221 C 17.780393141871997 116.5558006072786 45.89391545545047 C 0.0 **** -0.24
6222 H 18.38619045786959 117.27119350822649 46.44912452948611 H 0.0 **** 0.06
6223 H 17.61918636121038 115.66664560247442 46.50280976128113 H 0.0 **** 0.06
6224 H 18.29802456996731 116.27830294651245 44.97535878504107 H 0.0 **** 0.06
6225 H 16.819477821522185 117.00725358236717 45.64656440501531 H 0.0 **** 0.06
6226 C 90.749166356832 53.015362026355575 93.86351484582761 C 0.0 **** -0.24
6227 H 90.54198969735094 52.045425609321114 94.31489462966536 H 0.0 **** 0.06
6228 H 89.82038741490203 53.57748166455963 93.7680227694922 H 0.0 **** 0.06
6229 H 91.18948649252795 52.87045676873768 92.87711928664208 H 0.0 **** 0.06
6230 H 91.44577757634411 53.56792898120116 94.49503461220093 H 0.0 **** 0.06
6231 C 75.83132122712016 63.65931269644303 17.5464347185812 C 0.0 **** -0.24
6232 H 75.29321582427238 63.061588925426456 18.281968146015508 H 0.0 **** 0.06
6233 H 75.45002633970802 63.43828498458884 16.549966718556515 H 0.0 **** 0.06
6234 H 76.89426156903843 63.4194644193657 17.59070970683207 H 0.0 **** 0.06
6235 H 75.68819385042383 64.71802217156474 17.76444255329505 H 0.0 **** 0.06
6236 C 36.251053434510844 2.7068493211506084 17.409372099755416 C 0.0 **** -0.24
6237 H 36.266471236622124 2.5188597516664952 16.336075426119635 H 0.0 **** 0.06
6238 H 36.461891420394075 1.7794135288704886 17.943152810013544 H 0.0 **** 0.06
6239 H 35.26768950146112 3.078345499522854 17.69904360670205 H 0.0 **** 0.06
6240 H 37.00816157956601 3.4507785045423276 17.659216556186465 H 0.0 **** 0.06
6241 C 60.677525893148776 67.92158985137354 10.681962507429859 C 0.0 **** -0.24
6242 H 61.40942127008967 68.64220503753785 10.318617748318488 H 0.0 **** 0.06
6243 H 60.43537076194708 67.21740901805754 9.886254150160994 H 0.0 **** 0.06
6244 H 59.77332021735072 68.44726574687093 10.991181850493064 H 0.0 **** 0.06
6245 H 61.092196148212686 67.38104359560373 11.533381293911006 H 0.0 **** 0.06
6246 C 18.7352884411074 82.84420751812723 55.356214646997756 C 0.0 **** -0.24
6247 H 18.26485023568756 83.72594066074396 55.79198770969532 H 0.0 **** 0.06
6248 H 19.0923887684379 82.19141658141558 56.15260582366582 H 0.0 **** 0.06
6249 H 19.57524858434988 83.150837959205 54.73260313352054 H 0.0 **** 0.06
6250 H 18.006935658893212 82.30916573482875 54.74634899032563 H 0.0 **** 0.06
6251 C 46.34204460532793 57.00042189849438 19.647881961540858 C 0.0 **** -0.24
6252 H 47.02369124492308 56.93407164655238 18.799379678333 H 0.0 **** 0.06
6253 H 45.83971864413634 56.043185280039665 19.785309106205688 H 0.0 **** 0.06
6254 H 45.60109865903726 57.776886926392365 19.457170807872345 H 0.0 **** 0.06
6255 H 46.90508325940183 57.24901816003879 20.547253918740925 H 0.0 **** 0.06
6256 C 80.33036443160586 114.65604717024203 39.06754459157338 C 0.0 **** -0.24
6257 H 80.5512832383564 115.49253869602367 38.405495270918834 H 0.0 **** 0.06
6258 H 79.2511221638901 114.51830245112276 39.132668180987764 H 0.0 **** 0.06
6259 H 80.73137115072552 114.86125505727514 40.05945074991445 H 0.0 **** 0.06
6260 H 80.78835465572644 113.74898689803473 38.670860472894844 H 0.0 **** 0.06
6261 C 38.30175449316198 95.08628627799058 34.64836597940496 C 0.0 **** -0.24
6262 H 38.055891719486915 96.05866152262351 34.22203462118159 H 0.0 **** 0.06
6263 H 39.268279114315995 95.14278215458117 35.1493260124835 H 0.0 **** 0.06
6264 H 38.34767212160791 94.34244931809772 33.85172752260161 H 0.0 **** 0.06
6265 H 37.53459645276913 94.80096072567088 35.3680134096015 H 0.0 **** 0.06
6266 C 75.36149987355248 88.5769672224333 48.50725474452032 C 0.0 **** -0.24
6267 H 75.37698396371698 87.69372264569887 49.146292980171104 H 0.0 **** 0.06
6268 H 76.3836352657068 88.90876228425583 48.322184745151326 H 0.0 **** 0.06
6269 H 74.80373740501747 89.37227681003691 49.00186395054912 H 0.0 **** 0.06
6270 H 74.88158118923906 88.33113128511934 47.559722504836984 H 0.0 **** 0.06
6271 C 32.49454902404318 65.71518556710299 49.58420571429275 C 0.0 **** -0.24
6272 H 32.9938780556335 66.31386217406526 50.34574782312893 H 0.0 **** 0.06
6273 H 31.768048587998464 65.05507299054744 50.059031077030625 H 0.0 **** 0.06
6274 H 33.23245661466251 65.11908459363542 49.048560768715845 H 0.0 **** 0.06
6275 H 31.982102964810423 66.37412560139683 48.88315461277432 H 0.0 **** 0.06
6276 C 33.5337902198288 31.82578733375169 55.426633150820095 C 0.0 **** -0.24
6277 H 33.00740059851353 31.018268066660312 54.917699781904645 H 0.0 **** 0.06
6278 H 32.904162476564466 32.22451942209989 56.22167790517665 H 0.0 **** 0.06
6279 H 33.76110252954652 32.6174982583679 54.71209655288246 H 0.0 **** 0.06
6280 H 34.46031761743552 31.44380226409038 55.85296616795469 H 0.0 **** 0.06
6281 C 76.47551290472421 55.95476748807744 16.114978063522898 C 0.0 **** -0.24
6282 H 77.19338614343138 56.71532024348295 16.422093821211718 H 0.0 **** 0.06
6283 H 76.22674369189662 56.09419206668491 15.062146484846124 H 0.0 **** 0.06
6284 H 75.57149654171434 56.04427687718771 16.717045362766356 H 0.0 **** 0.06
6285 H 76.91178777568933 54.96571812133749 16.256908297243655 H 0.0 **** 0.06
6286 C 29.11760735138006 51.988207637673554 66.97237072383973 C 0.0 **** -0.24
6287 H 29.876630709461608 51.91360360817026 67.75161227597138 H 0.0 **** 0.06
6288 H 29.602218795680642 52.09869344762399 66.00206962177324 H 0.0 **** 0.06
6289 H 28.484710412769743 52.854446313185235 67.16462986931487 H 0.0 **** 0.06
6290 H 28.507388495508053 51.08459704214425 66.97304475211709 H 0.0 **** 0.06
6291 C 16.23081151033705 115.84028520847293 10.748484015494796 C 0.0 **** -0.24
6292 H 15.278196959578253 115.31671060288653 10.66857336077723 H 0.0 **** 0.06
6293 H 16.10797723649958 116.87014217865516 10.410630448067565 H 0.0 **** 0.06
6294 H 16.972374790003272 115.33973899532985 10.12655724296593 H 0.0 **** 0.06
6295 H 16.563445140214696 115.83507697644504 11.786136785173085 H 0.0 **** 0.06
6296 C 24.810612868707267 59.024716851265396 91.91655585873539 C 0.0 **** -0.24
6297 H 25.054198968496024 58.34052448412376 91.10394883976306 H 0.0 **** 0.06
6298 H 23.728780124145686 59.13795207978916 91.98310836739415 H 0.0 **** 0.06
6299 H 25.26665261506264 59.99550329312319 91.72236779635645 H 0.0 **** 0.06
6300 H 25.193968269509696 58.624950896104906 92.85597560312874 H 0.0 **** 0.06
6301 C 43.284863970986606 14.540057350273116 0.4469518006976294 C 0.0 **** -0.24
6302 H 42.82772285678749 15.459526922876421 0.0836940769428498 H 0.0 **** 0.06
6303 H 43.92658148993891 14.76486574463928 1.2988874689225085 H 0.0 **** 0.06
6304 H 43.879984238476396 14.090303795182251 -0.3488617914935208 H 0.0 **** 0.06
6305 H 42.50429281319177 13.84325063051557 0.7542508409394628 H 0.0 **** 0.06
6306 C 17.809675324898762 99.01737209497927 68.31126245304566 C 0.0 **** -0.24
6307 H 17.52316738913396 99.86135437029407 67.68259021739584 H 0.0 **** 0.06
6308 H 17.53879274194074 99.22797685915083 69.34575354393724 H 0.0 **** 0.06
6309 H 18.88539162177102 98.86125462979518 68.24068439527531 H 0.0 **** 0.06
6310 H 17.289358441572347 98.12031888935581 67.97428098703489 H 0.0 **** 0.06
6311 C 60.13268853270435 103.67033439532406 118.52241155132985 C 0.0 **** -0.24
6312 H 60.008548884662105 103.72009506078018 119.6042141201606 H 0.0 **** 0.06
6313 H 61.075427354635195 103.1762004314713 118.2887308392823 H 0.0 **** 0.06
6314 H 60.13873531985405 104.67970352611496 118.11131308446004 H 0.0 **** 0.06
6315 H 59.30772254651873 103.10588134777336 118.08848712158128 H 0.0 **** 0.06
6316 C 73.20504452872876 1.816726004961879 28.691985271516984 C 0.0 **** -0.24
6317 H 74.1724017592843 2.0858842462813527 29.11630167314138 H 0.0 **** 0.06
6318 H 73.35021252376714 1.1089117261192314 27.875282249443643 H 0.0 **** 0.06
6319 H 72.71305609865226 2.7133485365982892 28.31237480543726 H 0.0 **** 0.06
6320 H 72.58424756660207 1.360833896086831 29.463188927513244 H 0.0 **** 0.06
6321 C 99.79018865429254 54.84974483461858 88.83865997710672 C 0.0 **** -0.24
6322 H 99.06309590600401 54.642968482933945 89.623941610739 H 0.0 **** 0.06
6323 H 100.77451609258037 54.50372807821473 89.15522041501444 H 0.0 **** 0.06
6324 H 99.82506813052538 55.923234918989 88.6504763346311 H 0.0 **** 0.06
6325 H 99.49662039196437 54.32964412031919 87.92659226139938 H 0.0 **** 0.06
6326 C 8.939758858330045 77.07406624041448 76.83879114646757 C 0.0 **** -0.24
6327 H 9.164476645267609 78.05263957899083 76.41385498657311 H 0.0 **** 0.06
6328 H 8.49709756987475 76.43780114695525 76.07138944162693 H 0.0 **** 0.06
6329 H 8.237314726365266 77.18992223116084 77.66451763484076 H 0.0 **** 0.06
6330 H 9.858391953568631 76.61724193979592 77.20504690803446 H 0.0 **** 0.06
6331 C 12.401584443766012 22.996610989499217 65.41508375555551 C 0.0 **** -0.24
6332 H 13.049801007117555 23.867182189721916 65.51042308046704 H 0.0 **** 0.06
6333 H 12.040537616675891 22.923279046897818 64.38950530836726 H 0.0 **** 0.06
6334 H 11.553824649362362 23.09945284463305 66.09242890473831 H 0.0 **** 0.06
6335 H 12.962395341234906 22.097065349953198 65.66879293230019 H 0.0 **** 0.06
6336 C 3.838759434171976 100.01697606123903 86.73981168098226 C 0.0 **** -0.24
6337 H 4.527739268574479 99.55221054620574 87.44582261183169 H 0.0 **** 0.06
6338 H 3.309275588078478 100.83153572854903 87.23395535502732 H 0.0 **** 0.06
6339 H 3.1202008879786547 99.27435417523517 86.39149289011081 H 0.0 **** 0.06
6340 H 4.398470896628567 100.40767689313526 85.89098519101537 H 0.0 **** 0.06
6341 C 84.38138337722268 67.3176599333504 74.39780743840728 C 0.0 **** -0.24
6342 H 84.49991707237282 68.39814182398345 74.47973559150756 H 0.0 **** 0.06
6343 H 83.35575143769898 67.04532103615725 74.64967506697349 H 0.0 **** 0.06
6344 H 85.06767430856405 66.82399166004694 75.08528610535862 H 0.0 **** 0.06
6345 H 84.60035016346427 67.00476399011987 73.37687979804204 H 0.0 **** 0.06
6346 C 100.33260071518839 98.6510110122394 5.244159434132399 C 0.0 **** -0.24
6347 H 100.94476593610284 98.57633974632 4.344896643915263 H 0.0 **** 0.06
6348 H 100.94165889840167 99.02400946245638 6.067744202432934 H 0.0 **** 0.06
6349 H 99.93925381529198 97.66695801849147 5.498239074982294 H 0.0 **** 0.06
6350 H 99.50531604949617 99.337618043362 5.0631360516754 H 0.0 **** 0.06
6351 C 117.15695982065617 24.74083500308592 43.247407775454434 C 0.0 **** -0.24
6352 H 118.13805416327821 25.127486868316993 43.52327875621776 H 0.0 **** 0.06
6353 H 116.77601010969808 24.109719741671093 44.05096205105724 H 0.0 **** 0.06
6354 H 117.24207617088058 24.154513907566887 42.33230539415999 H 0.0 **** 0.06
6355 H 116.4727373894602 25.57325542829659 43.08358024697813 H 0.0 **** 0.06
6356 C 9.600506196364208 96.97144793737277 82.79899729315377 C 0.0 **** -0.24
6357 H 10.668275473973878 97.18184927937426 82.86315053539397 H 0.0 **** 0.06
6358 H 9.298856637047805 96.3611807768101 83.65020884037847 H 0.0 **** 0.06
6359 H 9.391312280983385 96.43451750881633 81.87314457396013 H 0.0 **** 0.06
6360 H 9.04510356613379 97.90987309948136 82.80847184620856 H 0.0 **** 0.06
6361 C 19.21808099488574 57.33225791237058 30.267082171508008 C 0.0 **** -0.24
6362 H 19.343758151084494 58.25604250522193 29.70169479052865 H 0.0 **** 0.06
6363 H 19.691220641000456 56.51124140648278 29.728252559139634 H 0.0 **** 0.06
6364 H 18.155571995488994 57.12302467926514 30.38880158430979 H 0.0 **** 0.06
6365 H 19.682220898216585 57.44018000271629 31.246995685544135 H 0.0 **** 0.06
6366 C 36.74413147346863 5.252721877609503 52.73606778874502 C 0.0 **** -0.24
6367 H 36.154143791956926 6.0036834551183915 52.20940576233208 H 0.0 **** 0.06
6368 H 36.61783435178414 5.381761361505397 53.81104286847284 H 0.0 **** 0.06
6369 H 37.79612163267805 5.368586666648767 52.47570724508619 H 0.0 **** 0.06
6370 H 36.405634430459116 4.256958543882675 52.447021432179206 H 0.0 **** 0.06
6371 C 101.53846311834454 64.27617485558306 1.5831079167984115 C 0.0 **** -0.24
6372 H 101.58267062136545 65.36419042686546 1.5437971772804957 H 0.0 **** 0.06
6373 H 100.793237292155 63.9687816470605 2.3172083804960835 H 0.0 **** 0.06
6374 H 102.51471485754661 63.883067249640625 1.868872835938447 H 0.0 **** 0.06
6375 H 101.26400214139338 63.88808409445742 0.6022856628296722 H 0.0 **** 0.06
6376 C 60.498666471196096 72.04901338065761 15.349235569619395 C 0.0 **** -0.24
6377 H 61.34537797040921 72.64682913676918 15.010461921270878 H 0.0 **** 0.06
6378 H 59.696888108045634 72.71104001593665 15.676294829360625 H 0.0 **** 0.06
6379 H 60.81001957790266 71.41635482758556 16.17927704691274 H 0.0 **** 0.06
6380 H 60.14318856253232 71.42467334328092 14.52910290765097 H 0.0 **** 0.06
6381 C 83.74437770349923 53.10272530668536 14.972167600455649 C 0.0 **** -0.24
6382 H 83.15755309292689 53.29197454202051 15.871000271854456 H 0.0 **** 0.06
6383 H 83.84780011930758 54.027925643392166 14.404785242538793 H 0.0 **** 0.06
6384 H 83.23966315803213 52.35599067991441 14.35895539398473 H 0.0 **** 0.06
6385 H 84.73155798502444 52.735804472401725 15.253227674416394 H 0.0 **** 0.06
6386 C 102.78377094792705 114.7762484415728 111.57340950787767 C 0.0 **** -0.24
6387 H 103.55174747853806 114.73052968942719 110.8018187081019 H 0.0 **** 0.06
6388 H 103.15280139957372 114.29891328232476 112.48173560486606 H 0.0 **** 0.06
6389 H 101.89004944858647 114.25690713355777 111.22709596025857 H 0.0 **** 0.06
6390 H 102.53994713691009 115.81821490376696 111.78226220424341 H 0.0 **** 0.06
6391 C 101.56291881558178 84.86994053984526 32.39172689403421 C 0.0 **** -0.24
6392 H 102.57640056177408 84.61701154820122 32.701991623560815 H 0.0 **** 0.06
6393 H 101.11242917141354 85.53547602259249 33.12983550529094 H 0.0 **** 0.06
6394 H 100.96878139192097 83.9593873700631 32.313061607678236 H 0.0 **** 0.06
6395 H 101.59297187362952 85.36868081051523 31.42310389613951 H 0.0 **** 0.06
6396 C 96.00929602757736 98.70388079266706 66.26757502391172 C 0.0 **** -0.24
6397 H 94.9966290108087 98.50007986447224 66.61488214683826 H 0.0 **** 0.06
6398 H 96.69980492823856 97.99623237070546 66.72593592159501 H 0.0 **** 0.06
6399 H 96.29142061795704 99.71915208664547 66.54660278528476 H 0.0 **** 0.06
6400 H 96.04945649669304 98.60101028373526 65.18315980490613 H 0.0 **** 0.06
6401 C 10.938745251080668 51.77880134781948 86.94246285996144 C 0.0 **** -0.24
6402 H 10.84952062781619 51.63487282476501 85.8654637209552 H 0.0 **** 0.06
6403 H 11.984180485721417 51.68149291259715 87.2363248109661 H 0.0 **** 0.06
6404 H 10.342824141828277 51.02712637319499 87.46064947270108 H 0.0 **** 0.06
6405 H 10.577879597509899 52.77297848230356 87.20638024107922 H 0.0 **** 0.06
6406 C 91.41851223990179 62.064919396647916 68.07100561937492 C 0.0 **** -0.24
6407 H 90.56105637770091 61.872184154960244 67.4260504624927 H 0.0 **** 0.06
6408 H 91.46336852791501 63.12880184161778 68.30553849660629 H 0.0 **** 0.06
6409 H 92.3323560199436 61.76586279394339 67.55934248767505 H 0.0 **** 0.06
6410 H 91.3143903784194 61.4939754765304 68.99372727564094 H 0.0 **** 0.06
6411 C 49.64399042358036 18.292215841155084 68.91969875053513 C 0.0 **** -0.24
6412 H 49.558851653322506 18.597426931723916 67.87649302630433 H 0.0 **** 0.06
6413 H 49.83802262290129 19.167583439857253 69.53968234173573 H 0.0 **** 0.06
6414 H 50.4661591515478 17.583346196442037 69.02427912365832 H 0.0 **** 0.06
6415 H 48.714781021622684 17.819265759381892 69.23633360927482 H 0.0 **** 0.06
6416 C 38.97319600385845 14.561102079082048 29.418223041226952 C 0.0 **** -0.24
6417 H 38.98568870855422 13.592569168207376 28.91803555687511 H 0.0 **** 0.06
6418 H 39.99697543751958 14.889525666985747 29.59878110875718 H 0.0 **** 0.06
6419 H 38.446563704936835 14.472973599715772 30.36836374069884 H 0.0 **** 0.06
6420 H 38.46316358955423 15.288967827120587 28.78640501541605 H 0.0 **** 0.06
6421 C 80.9248281864532 109.56275321385408 1.2693829651830413 C 0.0 **** -0.24
6422 H 81.97733238006012 109.73004050479693 1.039980545963033 H 0.0 **** 0.06
6423 H 80.35802821962298 109.48735300383521 0.3414475310981686 H 0.0 **** 0.06
6424 H 80.54470270411474 110.39694074393574 1.8599804711409718 H 0.0 **** 0.06
6425 H 80.81914410122658 108.63838778305723 1.8371566762442058 H 0.0 **** 0.06
6426 C 67.56720165940047 107.03055704014602 104.52448318175266 C 0.0 **** -0.24
6427 H 67.073117862429 107.83643050834351 103.98224735399765 H 0.0 **** 0.06
6428 H 68.48237260110639 106.74841367108968 104.00179401275432 H 0.0 **** 0.06
6429 H 66.90083370655628 106.17007287995511 104.58090396644735 H 0.0 **** 0.06
6430 H 67.81284902807607 107.36739925289709 105.53162431650412 H 0.0 **** 0.06
6431 C 1.9180628660537558 18.12349633726967 113.92844368686983 C 0.0 **** -0.24
6432 H 2.283258752384409 17.20918024097989 114.39455903980257 H 0.0 **** 0.06
6433 H 1.9043709233484805 18.926452681865726 114.66643914360392 H 0.0 **** 0.06
6434 H 0.9094481070387417 17.960246390870907 113.54944465998597 H 0.0 **** 0.06
6435 H 2.5756809977397417 18.400287096266993 113.10432485668065 H 0.0 **** 0.06
6436 C 22.306749898919662 34.82034800640689 68.9917493595886 C 0.0 **** -0.24
6437 H 21.409718258467024 35.20112992043606 68.50528884329282 H 0.0 **** 0.06
6438 H 22.04048206306149 34.3840514233578 69.95478743524279 H 0.0 **** 0.06
6439 H 23.011534611209044 35.63788741927172 69.14590003587284 H 0.0 **** 0.06
6440 H 22.76600627826045 34.05876210352632 68.36252365547668 H 0.0 **** 0.06
6441 C 28.523101227140273 67.18639661334996 26.465222296444978 C 0.0 **** -0.24
6442 H 29.40626599207701 67.05581324021472 27.090908778678084 H 0.0 **** 0.06
6443 H 28.118193055091012 66.20814882421575 26.20208673262664 H 0.0 **** 0.06
6444 H 28.797335672210124 67.72355551741981 25.557028827570434 H 0.0 **** 0.06
6445 H 27.772044659414973 67.75573755160829 27.012448459253335 H 0.0 **** 0.06
6446 C 23.31337945401708 73.53783989006061 70.73452881950814 C 0.0 **** -0.24
6447 H 24.084912833575117 73.3676092965423 69.9839794692995 H 0.0 **** 0.06
6448 H 22.34286956158539 73.62388817966331 70.24504250108845 H 0.0 **** 0.06
6449 H 23.530513064165746 74.45969550047943 71.27598418916995 H 0.0 **** 0.06
6450 H 23.29503893794626 72.70259435949677 71.43337858625316 H 0.0 **** 0.06
6451 C 49.657799471268646 24.53679116848201 8.998659505309604 C 0.0 **** -0.24
6452 H 49.19835465916677 25.33562828255286 8.416927374421164 H 0.0 **** 0.06
6453 H 49.03244675554197 23.645719824587303 8.949017011160521 H 0.0 **** 0.06
6454 H 49.75789357110139 24.854364691217043 10.03620745871254 H 0.0 **** 0.06
6455 H 50.64415582255205 24.31159201802828 8.590683801831403 H 0.0 **** 0.06
6456 C 7.315646909186398 11.510679012711336 48.25572317365244 C 0.0 **** -0.24
6457 H 7.051972629434772 11.565734394197392 49.311675974904325 H 0.0 **** 0.06
6458 H 8.346888847590037 11.171409221273706 48.15630153322729 H 0.0 **** 0.06
6459 H 7.210810901568095 12.497482857682769 47.80418448771118 H 0.0 **** 0.06
6460 H 6.6508062404871 10.808563114613719 47.751883156409946 H 0.0 **** 0.06
6461 C 100.09822475441428 52.18398973038424 69.46149438758198 C 0.0 **** -0.24
6462 H 99.10371931668095 52.62352093045661 69.53879143554713 H 0.0 **** 0.06
6463 H 100.15454741043362 51.29993364553172 70.09637323325279 H 0.0 **** 0.06
6464 H 100.84322769520548 52.91052539002757 69.78425135713692 H 0.0 **** 0.06
6465 H 100.29055318961395 51.90157421416811 68.4262278309833 H 0.0 **** 0.06
6466 C 104.88359340773351 6.67546467439227 15.628189166567154 C 0.0 **** -0.24
6467 H 104.4307093533973 6.970840714599305 14.681893451018098 H 0.0 **** 0.06
6468 H 104.161987316394 6.813117657084646 16.434307616799913 H 0.0 **** 0.06
6469 H 105.76229532023933 7.290712608900819 15.8174413826531 H 0.0 **** 0.06
6470 H 105.17712109853372 5.626893300319935 15.578217768156733 H 0.0 **** 0.06
6471 C 57.87369311452167 37.191162061075694 56.891518310929854 C 0.0 **** -0.24
6472 H 56.862063931413985 37.34689821793551 56.51548204928358 H 0.0 **** 0.06
6473 H 58.430640956355404 38.126899904369246 56.83366141598171 H 0.0 **** 0.06
6474 H 58.37213150443063 36.43337403404702 56.28776091402517 H 0.0 **** 0.06
6475 H 57.82774609572104 36.85832508969046 57.92847346665124 H 0.0 **** 0.06
6476 C 6.424873801834252 107.91461646093214 70.32913833147535 C 0.0 **** -0.24
6477 H 5.635229752380923 108.23359726444346 71.0096389610859 H 0.0 **** 0.06
6478 H 6.835403961787165 106.96369148137506 70.66892245218145 H 0.0 **** 0.06
6479 H 7.21391056723823 108.66688726659078 70.31222010192627 H 0.0 **** 0.06
6480 H 6.014273528534687 107.79588347883563 69.32573186027764 H 0.0 **** 0.06
6481 C 91.81907619041931 89.59212281640905 109.07384860446311 C 0.0 **** -0.24
6482 H 90.75520113810373 89.59019588005896 109.3124251482988 H 0.0 **** 0.06
6483 H 92.39483818909892 89.75153182087857 109.9854002727731 H 0.0 **** 0.06
6484 H 92.03064949316425 90.39154028355429 108.36441928270375 H 0.0 **** 0.06
6485 H 92.09372168940922 88.6328992744345 108.6332561545415 H 0.0 **** 0.06
6486 C 110.80489741891353 82.95098506477109 50.424495587724664 C 0.0 **** -0.24
6487 H 110.3683773806456 83.93699780636015 50.583428575573976 H 0.0 **** 0.06
6488 H 110.3128287978285 82.22707484061027 51.07605155690851 H 0.0 **** 0.06
6489 H 111.86951591892796 82.9825750883021 50.65413886127536 H 0.0 **** 0.06
6490 H 110.66553382323917 82.65560092737147 49.38420398708561 H 0.0 **** 0.06
6491 C 68.6658022020199 40.84452746624936 69.56013329893034 C 0.0 **** -0.24
6492 H 67.62362340659894 40.53045856178923 69.61582564740092 H 0.0 **** 0.06
6493 H 69.31294269363076 39.96975327995622 69.6390953304192 H 0.0 **** 0.06
6494 H 68.88286989866617 41.53172713695693 70.37805860857895 H 0.0 **** 0.06
6495 H 68.8439107515519 41.34394418046796 68.60770541793056 H 0.0 **** 0.06
6496 C 52.19675734008547 3.14735097186494 41.22354422196236 C 0.0 **** -0.24
6497 H 51.11933195889202 3.158750893839027 41.38325040231936 H 0.0 **** 0.06
6498 H 52.41461753029034 2.7295701787199 40.240636435769744 H 0.0 **** 0.06
6499 H 52.67146140851281 2.5361951537041776 41.99099204866167 H 0.0 **** 0.06
6500 H 52.58280599615398 4.164757722207463 41.28005496684759 H 0.0 **** 0.06
6501 C 67.97488052801901 77.72595482130771 66.19653981457367 C 0.0 **** -0.24
6502 H 68.90781064490267 78.22811060761245 66.45139760937286 H 0.0 **** 0.06
6503 H 68.12839412256716 77.09657292401187 65.31968258557674 H 0.0 **** 0.06
6504 H 67.20970365719026 78.47140970228082 65.97834726833219 H 0.0 **** 0.06
6505 H 67.65285741224253 77.10991894683161 67.03594464285914 H 0.0 **** 0.06
6506 C 64.62373208669402 83.83335621724154 11.821823442380037 C 0.0 **** -0.24
6507 H 65.5108010214513 83.29354553887879 11.489324195650255 H 0.0 **** 0.06
6508 H 63.73892164835587 83.39714788069205 11.356307118058652 H 0.0 **** 0.06
6509 H 64.70695872386898 84.88089812762445 11.535027784180215 H 0.0 **** 0.06
6510 H 64.53874519084286 83.75823068268835 12.90575514300204 H 0.0 **** 0.06
6511 C 22.51833824791146 115.47425532046218 47.037718867469835 C 0.0 **** -0.24
6512 H 22.204808437374965 116.50910942649807 46.89555458097493 H 0.0 **** 0.06
6513 H 22.688272098919356 115.01009340791035 46.066462079210396 H 0.0 **** 0.06
6514 H 21.740005266159187 114.92922577422846 47.571043426404685 H 0.0 **** 0.06
6515 H 23.440886274803177 115.45185110108905 47.617820374935945 H 0.0 **** 0.06
6516 C 92.44833639797179 94.25459557880839 2.449588138559193 C 0.0 **** -0.24
6517 H 91.93599886155641 94.4033548285054 1.4994736934627895 H 0.0 **** 0.06
6518 H 92.12558100582788 95.01852388644477 3.158789252731083 H 0.0 **** 0.06
6519 H 93.52432632989982 94.33068599891484 2.2983288073917265 H 0.0 **** 0.06
6520 H 92.20525041814338 93.26743504691169 2.8430228541366773 H 0.0 **** 0.06
6521 C 68.90900982982524 97.22223155315646 110.70855021214925 C 0.0 **** -0.24
6522 H 68.49349104612392 96.3717088891297 110.1690339008025 H 0.0 **** 0.06
6523 H 69.28361443742114 97.95596855219853 109.99468468899758 H 0.0 **** 0.06
6524 H 69.72711455236131 96.8839135419463 111.34460773189468 H 0.0 **** 0.06
6525 H 68.13331199272486 97.67634561939212 111.32420334697986 H 0.0 **** 0.06
6526 C 89.38195064163787 74.54258639393865 38.96612126650011 C 0.0 **** -0.24
6527 H 89.06655170955108 75.57822646201706 39.097421686984674 H 0.0 **** 0.06
6528 H 90.31439031047822 74.37641783219195 39.50637203284875 H 0.0 **** 0.06
6529 H 89.53509813643848 74.34219445686074 37.905708382439485 H 0.0 **** 0.06
6530 H 88.61167911936977 73.87688773235871 39.35573344934274 H 0.0 **** 0.06
6531 C 37.43556251270081 90.97097235918156 4.255532117265531 C 0.0 **** -0.24
6532 H 37.959936832163066 90.09170970392663 3.880901173597124 H 0.0 **** 0.06
6533 H 38.005068139996865 91.86700065986548 4.005491542551837 H 0.0 **** 0.06
6534 H 37.33146308924785 90.8967466130214 5.338234960388817 H 0.0 **** 0.06
6535 H 36.448759892160865 91.02697902316618 3.7976431332636764 H 0.0 **** 0.06
6536 C 34.31718841994933 45.86930072872285 104.71787082309558 C 0.0 **** -0.24
6537 H 35.270854928550534 46.217160330032186 104.31760015263745 H 0.0 **** 0.06
6538 H 33.50121429038941 46.304925113152336 104.14144114809025 H 0.0 **** 0.06
6539 H 34.229525294423425 46.17285228149869 105.76121507003253 H 0.0 **** 0.06
6540 H 34.27073840216022 44.78277861725317 104.65026448507876 H 0.0 **** 0.06
6541 C 112.8641692226897 29.730860171870404 84.74061675571386 C 0.0 **** -0.24
6542 H 112.2364793724837 29.17760479813245 84.04156486130191 H 0.0 **** 0.06
6543 H 112.23324333520155 30.246220775769814 85.46467444070407 H 0.0 **** 0.06
6544 H 113.46056018763763 30.46132040878996 84.19287566991889 H 0.0 **** 0.06
6545 H 113.52495166811705 29.038128568842524 85.2616513500326 H 0.0 **** 0.06
6546 C 57.03799858380586 93.3111351268002 104.51238219139546 C 0.0 **** -0.24
6547 H 56.21871019949367 92.59353957140652 104.56029620924642 H 0.0 **** 0.06
6548 H 57.50235821175724 93.2662790809826 103.52723822063658 H 0.0 **** 0.06
6549 H 57.77804129241417 93.06810901882199 105.2753695534883 H 0.0 **** 0.06
6550 H 56.6512224791779 94.31546241139432 104.68758084994244 H 0.0 **** 0.06
6551 C 52.60180630846612 100.52002819009948 27.222938214532178 C 0.0 **** -0.24
6552 H 51.81877457297298 101.02442966335599 27.787915156993108 H 0.0 **** 0.06
6553 H 52.79747834909612 99.54230593273513 27.664631864679052 H 0.0 **** 0.06
6554 H 53.511875910718246 101.11919206978058 27.250132431380848 H 0.0 **** 0.06
6555 H 52.281132820700805 100.39334610080505 26.18868691129336 H 0.0 **** 0.06
6556 C 33.36368388165482 108.58232508022107 113.68617871836916 C 0.0 **** -0.24
6557 H 32.289789417857776 108.49616229025753 113.51567851434082 H 0.0 **** 0.06
6558 H 33.640651119797724 107.99385470415623 114.56150231507814 H 0.0 **** 0.06
6559 H 33.622215703896984 109.62796648301531 113.85330419461589 H 0.0 **** 0.06
6560 H 33.900169121190345 108.20974089805196 112.81286305080279 H 0.0 **** 0.06
6561 C 68.74836013308112 96.3042088456609 106.9518846049094 C 0.0 **** -0.24
6562 H 69.01430262905993 97.09960663767018 107.64884053660458 H 0.0 **** 0.06
6563 H 68.6331629728798 95.36791600611292 107.49681563689899 H 0.0 **** 0.06
6564 H 69.53754128906925 96.19673755983652 106.20784120127422 H 0.0 **** 0.06
6565 H 67.81162314899558 96.55504268190967 106.45490096680965 H 0.0 **** 0.06
6566 C 47.34904151011875 54.31453505471649 81.42031508509692 C 0.0 **** -0.24
6567 H 48.114928585671294 53.67552424189688 80.97941395261216 H 0.0 **** 0.06
6568 H 46.576933106768934 53.694507434878005 81.87544134369531 H 0.0 **** 0.06
6569 H 46.90401061293471 54.936305879005495 80.64375659538024 H 0.0 **** 0.06
6570 H 47.80095261034336 54.9504989421301 82.18171765830499 H 0.0 **** 0.06
6571 C 103.41318306628119 5.133307998854974 107.91617690435629 C 0.0 **** -0.24
6572 H 103.26123466487505 5.545511945411818 106.91813170644608 H 0.0 **** 0.06
6573 H 102.89231933130154 4.179030569140494 107.99792136370289 H 0.0 **** 0.06
6574 H 103.02197030973284 5.827327172135199 108.65916307891712 H 0.0 **** 0.06
6575 H 104.47877119794089 4.981127077225324 108.08568332625075 H 0.0 **** 0.06
6576 C 5.80884034478246 64.6154905499076 98.62669720152527 C 0.0 **** -0.24
6577 H 6.674271118032248 64.24712590341957 99.17687043724203 H 0.0 **** 0.06
6578 H 5.085427959705184 63.80910673542157 98.50750737151984 H 0.0 **** 0.06
6579 H 6.126386836701114 64.96762870582299 97.64534379856991 H 0.0 **** 0.06
6580 H 5.351546018824518 65.43729660172659 99.17751229651611 H 0.0 **** 0.06
6581 C 109.30050115976914 9.016076089587173 32.19515504989843 C 0.0 **** -0.24
6582 H 109.10028268612362 9.844649352689373 32.87461254695799 H 0.0 **** 0.06
6583 H 109.85207415691787 8.238084662881974 32.72357928768963 H 0.0 **** 0.06
6584 H 109.89030987465958 9.372949406990188 31.351229907634945 H 0.0 **** 0.06
6585 H 108.35634457241562 8.608734711102215 31.831032794378615 H 0.0 **** 0.06
6586 C 21.430511380623013 66.77950852722995 102.05487366806662 C 0.0 **** -0.24
6587 H 21.039862407675617 66.2500457853416 101.18617226741745 H 0.0 **** 0.06
6588 H 22.473995760491995 67.04502543195693 101.87923536140315 H 0.0 **** 0.06
6589 H 21.361497254190898 66.13814107277273 102.93348131988657 H 0.0 **** 0.06
6590 H 20.847413214361175 67.68602617177939 102.2204421480466 H 0.0 **** 0.06
6591 C 23.3958984336586 22.3129986260476 60.775529153683436 C 0.0 **** -0.24
6592 H 23.6845751768631 21.261496867733456 60.77859704380907 H 0.0 **** 0.06
6593 H 22.47339687950114 22.434373808197563 60.2069928153324 H 0.0 **** 0.06
6594 H 24.18626236309305 22.905140756041675 60.314829583575744 H 0.0 **** 0.06
6595 H 23.238519225163735 22.65020091896912 61.79977811551467 H 0.0 **** 0.06
6596 C 106.0920419069655 97.5685061197027 14.100026046280277 C 0.0 **** -0.24
6597 H 106.7250463506748 97.32620342622602 14.953491529467158 H 0.0 **** 0.06
6598 H 105.32270060427464 98.27666028868259 14.407901354259494 H 0.0 **** 0.06
6599 H 105.62118318487452 96.65752585966135 13.728674891187865 H 0.0 **** 0.06
6600 H 106.70021179017462 98.01085587932292 13.310609369957078 H 0.0 **** 0.06
6601 C 26.204080598603326 84.78541745389165 37.72479042081608 C 0.0 **** -0.24
6602 H 25.672994054088775 85.72175235702534 37.554606463516166 H 0.0 **** 0.06
6603 H 25.587073123758614 84.12387303844625 38.33321079829628 H 0.0 **** 0.06
6604 H 27.141186084176667 84.98880990219007 38.243808183191504 H 0.0 **** 0.06
6605 H 26.414483589298612 84.30826974684211 36.76830145551918 H 0.0 **** 0.06
6606 C 51.74505252979846 8.27479756779411 29.83952179611856 C 0.0 **** -0.24
6607 H 52.65992906509422 7.982733432303519 30.3547101235537 H 0.0 **** 0.06
6608 H 51.97663751372268 8.538802244914976 28.807690177449444 H 0.0 **** 0.06
6609 H 51.3040357494048 9.134500674492926 30.344324089107772 H 0.0 **** 0.06
6610 H 51.03942963751478 7.4440687126291465 29.85339545459152 H 0.0 **** 0.06
6611 C 101.60387265928114 113.03597092474115 53.62078589275467 C 0.0 **** -0.24
6612 H 102.37758620275187 113.29422881290316 52.89738502430896 H 0.0 **** 0.06
6613 H 102.00471112616785 113.13044813771216 54.63038491954205 H 0.0 **** 0.06
6614 H 101.27830238083669 112.00979998526941 53.453616219665946 H 0.0 **** 0.06
6615 H 100.75602496757259 113.71018693412282 53.50208206590054 H 0.0 **** 0.06
6616 C 73.68591980931905 81.26674440049496 34.89165530250699 C 0.0 **** -0.24
6617 H 74.24927992958209 81.98741317402138 35.48436050678876 H 0.0 **** 0.06
6618 H 73.78236371855195 81.51180162353393 33.83394073810939 H 0.0 **** 0.06
6619 H 72.63516653706205 81.30231019045544 35.17941076720612 H 0.0 **** 0.06
6620 H 74.0783811889583 80.2652409614829 35.069727012671535 H 0.0 **** 0.06
6621 C 78.76519914485775 40.931858867275224 13.367167875126555 C 0.0 **** -0.24
6622 H 79.21935133356018 41.91794865375431 13.472288681609726 H 0.0 **** 0.06
6623 H 79.18542209906371 40.25756292534692 14.113014500313398 H 0.0 **** 0.06
6624 H 78.96970830072394 40.54382088550071 12.369124728944897 H 0.0 **** 0.06
6625 H 77.68826122778623 41.01094786039596 13.512787837940337 H 0.0 **** 0.06
6626 C 7.8874017448681855 96.16601283588585 61.118831510295536 C 0.0 **** -0.24
6627 H 7.963441469221372 95.09254255973406 60.94424879388137 H 0.0 **** 0.06
6628 H 6.877934038966128 96.40911530856113 61.452336803762535 H 0.0 **** 0.06
6629 H 8.103691062232844 96.70073437024158 60.1942216723821 H 0.0 **** 0.06
6630 H 8.604180521393104 96.46080017873726 61.884883168048134 H 0.0 **** 0.06
6631 C 99.09922407722115 78.43880733574738 13.8105295456248 C 0.0 **** -0.24
6632 H 98.4693688241386 79.32737128117819 13.824775544081128 H 0.0 **** 0.06
6633 H 99.3822181106249 78.20987295406948 12.782374847743455 H 0.0 **** 0.06
6634 H 98.54990575704971 77.59768104400686 14.233196673918105 H 0.0 **** 0.06
6635 H 99.99633559272829 78.6206406420915 14.401906005389247 H 0.0 **** 0.06
6636 C 54.10573737858804 3.200039701100593 112.3320101109446 C 0.0 **** -0.24
6637 H 53.4179170588417 3.7135442437731 111.66128305985018 H 0.0 **** 0.06
6638 H 54.059378523730516 2.1262300247486365 112.14720405321972 H 0.0 **** 0.06
6639 H 53.82691961415024 3.4039641270828014 113.3652603145838 H 0.0 **** 0.06
6640 H 55.120482814136714 3.5561003819965435 112.15337618623656 H 0.0 **** 0.06
6641 C 94.34193088213956 34.709468402094785 84.50734265942461 C 0.0 **** -0.24
6642 H 95.20954859133201 34.09394995269021 84.26723812606818 H 0.0 **** 0.06
6643 H 94.0960782906626 35.339952691969955 83.65274998261683 H 0.0 **** 0.06
6644 H 94.56861972836305 35.3360869925842 85.37003836986946 H 0.0 **** 0.06
6645 H 93.49396548242291 34.06498084205579 84.73992180399645 H 0.0 **** 0.06
6646 C 89.34940629675489 67.06275721774816 7.275763824602251 C 0.0 **** -0.24
6647 H 89.56712001003496 67.81092422314947 6.514014259405286 H 0.0 **** 0.06
6648 H 88.94645747793979 66.16793063412342 6.801772070169733 H 0.0 **** 0.06
6649 H 88.6168488919597 67.46260730755287 7.9783727095569645 H 0.0 **** 0.06
6650 H 90.26519874209623 66.81156005510437 7.80990958404189 H 0.0 **** 0.06
6651 C 82.05317659492056 35.316390478957885 1.8632721935815653 C 0.0 **** -0.24
6652 H 81.50507364774191 35.585434785494954 2.766092705640119 H 0.0 **** 0.06
6653 H 81.42200033522408 34.69496531140675 1.2267637860635432 H 0.0 **** 0.06
6654 H 82.95175750984401 34.76248695432723 2.13575855574328 H 0.0 **** 0.06
6655 H 82.33384140589865 36.221685205260655 1.3243340416285605 H 0.0 **** 0.06
6656 C 78.09084129786348 5.417617266288659 108.99042843945989 C 0.0 **** -0.24
6657 H 78.97751849649478 5.850376282506346 108.52705628482431 H 0.0 **** 0.06
6658 H 78.20242134527365 5.436455443999165 110.0747815258637 H 0.0 **** 0.06
6659 H 77.97210278995226 4.38786772811514 108.65475662157854 H 0.0 **** 0.06
6660 H 77.21275793297477 5.997008343130432 108.7039337716914 H 0.0 **** 0.06
6661 C 112.95886716697444 68.1444353999187 24.25882850115599 C 0.0 **** -0.24
6662 H 113.77640958255853 68.12096205244762 23.538587607575153 H 0.0 **** 0.06
6663 H 113.36093743567385 68.03868510900654 25.26653428988726 H 0.0 **** 0.06
6664 H 112.27040431213676 67.3238834488063 24.054170188689795 H 0.0 **** 0.06
6665 H 112.42831500353445 69.09293023856625 24.176072807827126 H 0.0 **** 0.06
6666 C 23.663362593214288 110.26889413503918 73.99411026663842 C 0.0 **** -0.24
6667 H 24.534044913284333 109.8335365143827 73.50523858404651 H 0.0 **** 0.06
6668 H 22.89317861788919 110.47223205099945 73.25019905189731 H 0.0 **** 0.06
6669 H 23.950159568603738 111.19888900595011 74.48552112829907 H 0.0 **** 0.06
6670 H 23.277137740770513 109.56967679749027 74.73604023149443 H 0.0 **** 0.06
6671 C 26.176251725288466 44.263937887346316 102.90761332340605 C 0.0 **** -0.24
6672 H 25.26505970974273 43.666026610921136 102.92863216930098 H 0.0 **** 0.06
6673 H 25.926562128733508 45.31218985940782 103.06953131564566 H 0.0 **** 0.06
6674 H 26.660989343053927 44.15168203356674 101.937716089469 H 0.0 **** 0.06
6675 H 26.85086432979574 43.92418808159016 103.69363398958825 H 0.0 **** 0.06
6676 C 16.239280864959255 31.540536774678856 45.23470457344533 C 0.0 **** -0.24
6677 H 16.355008056480102 31.48546178006336 44.152528756933265 H 0.0 **** 0.06
6678 H 16.724527174763523 32.44276472453015 45.60681249494908 H 0.0 **** 0.06
6679 H 16.697947108308398 30.66466761724803 45.69318253726442 H 0.0 **** 0.06
6680 H 15.179106561764968 31.567796140109806 45.48552505710116 H 0.0 **** 0.06
6681 C 71.00534201145646 67.38200636761471 109.21880437831751 C 0.0 **** -0.24
6682 H 71.77754391022725 67.4749870514676 109.98216691570462 H 0.0 **** 0.06
6683 H 71.46929759769077 67.36146741070002 108.23211344351296 H 0.0 **** 0.06
6684 H 70.32673136873578 68.23308248938218 109.2844752351222 H 0.0 **** 0.06
6685 H 70.44661194621179 66.45990465697659 109.37772478439888 H 0.0 **** 0.06
6686 C 109.08705353596494 47.54341438193106 57.940155250466375 C 0.0 **** -0.24
6687 H 109.82094707443753 47.974504041351594 58.620841323170566 H 0.0 **** 0.06
6688 H 108.36260245771538 48.307420141322126 57.65694077050108 H 0.0 **** 0.06
6689 H 108.57257783206529 46.72015171165532 58.43515914776265 H 0.0 **** 0.06
6690 H 109.59235770838336 47.172443692624825 57.048108141172804 H 0.0 **** 0.06
6691 C 110.12013240067306 87.764499611965 69.50842712745134 C 0.0 **** -0.24
6692 H 109.39950859638708 87.15302137378484 70.05065882557562 H 0.0 **** 0.06
6693 H 110.00891823018344 88.80762037092876 69.80490153644757 H 0.0 **** 0.06
6694 H 109.94227068697445 87.67047181411778 68.436231404166 H 0.0 **** 0.06
6695 H 111.13057074126606 87.42626696935798 69.73907542431803 H 0.0 **** 0.06
6696 C 88.66935338120925 46.8282131933172 38.04155636599887 C 0.0 **** -0.24
6697 H 88.19767215938398 47.035407530855025 39.00276652669106 H 0.0 **** 0.06
6698 H 88.09938056713023 46.06139099120611 37.516564657346635 H 0.0 **** 0.06
6699 H 89.68802201509348 46.47735531852874 38.20491027111714 H 0.0 **** 0.06
6700 H 88.6892530609783 47.73930600248195 37.44303777759467 H 0.0 **** 0.06
6701 C 107.24368047841907 74.82305002583132 23.088886293500707 C 0.0 **** -0.24
6702 H 107.60114385207822 73.82900148638538 22.821284026993105 H 0.0 **** 0.06
6703 H 107.43161997667428 75.00398202085086 24.147227415163456 H 0.0 **** 0.06
6704 H 106.17324750640125 74.8887294524938 22.893596649985383 H 0.0 **** 0.06
6705 H 107.7679491379721 75.57000505358786 22.493003658198436 H 0.0 **** 0.06
6706 C 118.63591300391252 45.11591426629579 57.49420330582466 C 0.0 **** -0.24
6707 H 118.7775346469391 45.28050884467714 56.42549493891824 H 0.0 **** 0.06
6708 H 118.74921457529678 44.05457733602955 57.715834216671674 H 0.0 **** 0.06
6709 H 117.63634998642041 45.44359512041146 57.781710980763556 H 0.0 **** 0.06
6710 H 119.37965088933996 45.685599651381324 58.05064291869042 H 0.0 **** 0.06
6711 C 68.73138721209682 114.95647187568308 96.26911538815034 C 0.0 **** -0.24
6712 H 67.78988428691349 114.42767442343653 96.11397292477207 H 0.0 **** 0.06
6713 H 68.98986248400283 115.50963302086187 95.36621459290475 H 0.0 **** 0.06
6714 H 69.51856741788077 114.23645624624676 96.49256869556791 H 0.0 **** 0.06
6715 H 68.62528462138104 115.64897658710807 97.103163910598 H 0.0 **** 0.06
6716 C 17.22213923124434 12.976032134403681 114.98461268506168 C 0.0 **** -0.24
6717 H 17.33296804118993 12.004026591024854 115.46550849662071 H 0.0 **** 0.06
6718 H 17.962366279031954 13.667323439828465 115.38976565279864 H 0.0 **** 0.06
6719 H 16.22134273366595 13.362221408232358 115.17404261300646 H 0.0 **** 0.06
6720 H 17.374082333828625 12.869604249021677 113.91093446739961 H 0.0 **** 0.06
6721 C 66.22953171642612 108.66554935284518 59.458367265806544 C 0.0 **** -0.24
6722 H 66.80583841875219 108.10109941982046 60.19161036557216 H 0.0 **** 0.06
6723 H 66.01366888983091 109.65875073431476 59.85287690978623 H 0.0 **** 0.06
6724 H 65.29426961553338 108.14476997160568 59.253975033772804 H 0.0 **** 0.06
6725 H 66.80427056744784 108.75656690646542 58.537000024388135 H 0.0 **** 0.06
6726 C 8.996398338311469 78.65095391533376 72.81864710408897 C 0.0 **** -0.24
6727 H 9.224520198758562 78.88013112285495 73.85964268584641 H 0.0 **** 0.06
6728 H 9.187352258227776 77.59408318586799 72.62885640263292 H 0.0 **** 0.06
6729 H 9.62546265310727 79.25727035872836 72.16688408769485 H 0.0 **** 0.06
6730 H 7.947787547905929 78.87193151018562 72.619991953165 H 0.0 **** 0.06
6731 C 97.65374225522905 81.75695062982521 72.51484617662823 C 0.0 **** -0.24
6732 H 97.89251944545865 80.75157993195728 72.16763039842209 H 0.0 **** 0.06
6733 H 98.28802342441438 82.47903843520709 72.00143102000152 H 0.0 **** 0.06
6734 H 97.82549182379853 81.8193267213706 73.58895316343222 H 0.0 **** 0.06
6735 H 96.60665602491173 81.97549532875234 72.30185018371438 H 0.0 **** 0.06
6736 C 47.74092707994225 68.38026166578499 97.91181348787472 C 0.0 **** -0.24
6737 H 48.661500869213114 68.93475806108995 97.73242241555101 H 0.0 **** 0.06
6738 H 47.83219136206765 67.81603636107388 98.84024185781942 H 0.0 **** 0.06
6739 H 47.56447981682311 67.69193665581804 97.08431804666981 H 0.0 **** 0.06
6740 H 46.90577050999059 69.07655863150933 97.98890834899487 H 0.0 **** 0.06
6741 C 26.558653900613194 16.466716850535875 89.0550293886983 C 0.0 **** -0.24
6742 H 26.23420370178104 16.182713760861475 90.05637743671687 H 0.0 **** 0.06
6743 H 27.637669126883083 16.625755857347855 89.05385003931275 H 0.0 **** 0.06
6744 H 26.0547987799291 17.38641179978231 88.75679153187275 H 0.0 **** 0.06
6745 H 26.30812792186545 15.67100932128048 88.35320971649949 H 0.0 **** 0.06
6746 C 53.53572918386311 55.3277699200513 60.2286217637276 C 0.0 **** -0.24
6747 H 54.183971808181724 55.0257227752036 59.40616958978805 H 0.0 **** 0.06
6748 H 53.691087157071934 54.66136073194156 61.077115881503914 H 0.0 **** 0.06
6749 H 52.49511654370744 55.27389389277011 59.90998053973942 H 0.0 **** 0.06
6750 H 53.773983057189554 56.35076469657624 60.5213595296097 H 0.0 **** 0.06
6751 C 97.31398659885437 38.02566878236041 8.961372215496738 C 0.0 **** -0.24
6752 H 96.40129081729376 38.13745554291751 9.547448790704209 H 0.0 **** 0.06
6753 H 98.17296975249087 37.99186366715844 9.632179025512613 H 0.0 **** 0.06
6754 H 97.41578149114659 38.87202223316302 8.28229107944378 H 0.0 **** 0.06
6755 H 97.26563378768307 37.10140092929157 8.386557073592158 H 0.0 **** 0.06
6756 C 88.38065149101124 37.48042539906197 62.85958314868142 C 0.0 **** -0.24
6757 H 89.45295250789047 37.67500203818306 62.83906412324234 H 0.0 **** 0.06
6758 H 88.06352333027166 37.3044481935911 63.887373161103625 H 0.0 **** 0.06
6759 H 88.15999059297826 36.60058621356761 62.25512442434459 H 0.0 **** 0.06
6760 H 87.84752494676843 38.34142111640297 62.45662530889362 H 0.0 **** 0.06
6761 C 8.7211080127488 83.08762188796464 9.499597075021967 C 0.0 **** -0.24
6762 H 8.674087879245803 82.81082108835577 8.446798451537802 H 0.0 **** 0.06
6763 H 9.75858020198973 83.27346457991118 9.780596401988959 H 0.0 **** 0.06
6764 H 8.320137991173056 82.27597276981993 10.106566853430593 H 0.0 **** 0.06
6765 H 8.132471489578847 83.99045349358846 9.664911178951314 H 0.0 **** 0.06
6766 C 10.828869629261362 98.56768974246154 14.607560694964775 C 0.0 **** -0.24
6767 H 10.710322572184396 97.9734259383207 13.700393226525534 H 0.0 **** 0.06
6768 H 10.89677443678579 99.62306527572878 14.343259728786279 H 0.0 **** 0.06
6769 H 11.738141518981053 98.26283738094662 15.12579736660905 H 0.0 **** 0.06
6770 H 9.96944356292994 98.41047347063261 15.25893495087901 H 0.0 **** 0.06
6771 C 92.69670522673002 90.43618194091368 2.460520244850544 C 0.0 **** -0.24
6772 H 93.43692372676378 91.21784781333304 2.634214411190033 H 0.0 **** 0.06
6773 H 91.7004132983534 90.87761414732887 2.4381246747048824 H 0.0 **** 0.06
6774 H 92.75132771980287 89.7001767876859 3.2630421470800197 H 0.0 **** 0.06
6775 H 92.9005815539092 89.94938926316445 1.5065333833883763 H 0.0 **** 0.06
6776 C 18.54008536345313 112.1542105317061 30.248260495226496 C 0.0 **** -0.24
6777 H 19.325790209636693 111.52188195515589 29.833816187787477 H 0.0 **** 0.06
6778 H 17.566472700944217 111.77240933983637 29.939506780445967 H 0.0 **** 0.06
6779 H 18.664112173842028 113.17343276687905 29.881372234428454 H 0.0 **** 0.06
6780 H 18.605268511321754 112.1481498912488 31.335454078776884 H 0.0 **** 0.06
6781 C 54.694229484662365 34.52497942392483 5.8231689832025495 C 0.0 **** -0.24
6782 H 53.75653435179049 35.07650013802913 5.751948667633968 H 0.0 **** 0.06
6783 H 55.212881412273 34.56590325213426 4.864820379461918 H 0.0 **** 0.06
6784 H 54.48517672514729 33.48591739581963 6.079860785823229 H 0.0 **** 0.06
6785 H 55.32013863045494 34.97182448766722 6.595638271740796 H 0.0 **** 0.06
6786 C 61.52700178174353 103.19674065515665 39.04823824601908 C 0.0 **** -0.24
6787 H 60.82052114304417 103.37522994706637 38.23750693530013 H 0.0 **** 0.06
6788 H 62.440072398499446 102.7581683436955 38.644697675949686 H 0.0 **** 0.06
6789 H 61.08357487057338 102.51344992967864 39.77271457025273 H 0.0 **** 0.06
6790 H 61.76339120687464 104.14145392873428 39.53810807902056 H 0.0 **** 0.06
6791 C 50.78305911797276 76.8830781452516 85.16452931219777 C 0.0 **** -0.24
6792 H 51.184497663516765 77.65839113832578 84.51102223626529 H 0.0 **** 0.06
6793 H 50.67427816524124 75.95514631104606 84.60158003902302 H 0.0 **** 0.06
6794 H 49.809620546706284 77.19560490108529 85.54276463138015 H 0.0 **** 0.06
6795 H 51.464820581561206 76.72494585029892 86.00012613413787 H 0.0 **** 0.06
6796 C 72.66293232321686 88.8192370159999 99.57476446299938 C 0.0 **** -0.24
6797 H 72.67668528621687 89.03477269849299 98.50669061011072 H 0.0 **** 0.06
6798 H 71.65009669738907 88.55385294004341 99.87816662037764 H 0.0 **** 0.06
6799 H 72.98893317966417 89.70061835747015 100.12639740354342 H 0.0 **** 0.06
6800 H 73.33527538124952 87.98874210114366 99.78571106849509 H 0.0 **** 0.06
6801 C 8.162265323520558 82.36525646082518 45.41079614301265 C 0.0 **** -0.24
6802 H 7.506184142862196 82.46718172821375 44.5457508529183 H 0.0 **** 0.06
6803 H 7.9340779830973815 83.14872529117716 46.133316515443056 H 0.0 **** 0.06
6804 H 9.20066153927121 82.45700957761898 45.0909988887216 H 0.0 **** 0.06
6805 H 8.008858936133947 81.38947140166712 45.87054445103192 H 0.0 **** 0.06
6806 C 2.153033447902388 41.89140667486414 24.863441847377537 C 0.0 **** -0.24
6807 H 3.0345470429351025 41.96309332397271 25.501160767814802 H 0.0 **** 0.06
6808 H 1.2809833646433049 42.254147370351916 25.40881097923897 H 0.0 **** 0.06
6809 H 1.996537074693535 40.85177285838848 24.576530789040163 H 0.0 **** 0.06
6810 H 2.300964897191278 42.49749329229745 23.96998852936951 H 0.0 **** 0.06
6811 C 28.632624849407648 53.76615126226818 53.348803786091295 C 0.0 **** -0.24
6812 H 28.7861552121569 53.25717055612506 54.29987033610462 H 0.0 **** 0.06
6813 H 29.584238537888126 54.1611716734684 52.99097712072199 H 0.0 **** 0.06
6814 H 27.92672714317476 54.585527085997 53.484650236993545 H 0.0 **** 0.06
6815 H 28.235353093024116 53.06063668717195 52.61941508673914 H 0.0 **** 0.06
6816 C 25.099583445017032 85.61147780602562 10.134488190260996 C 0.0 **** -0.24
6817 H 24.683900340284993 85.89224430577613 11.101848132365888 H 0.0 **** 0.06
6818 H 24.90648239090524 86.40492749289376 9.412165426047636 H 0.0 **** 0.06
6819 H 24.632630459487444 84.68774500391967 9.793139140377306 H 0.0 **** 0.06
6820 H 26.175320589390225 85.46099442151299 10.230800062253167 H 0.0 **** 0.06
6821 C 94.24648139777503 90.27725412182593 76.75297993491651 C 0.0 **** -0.24
6822 H 93.97334504469413 89.26222408794794 77.0433972179635 H 0.0 **** 0.06
6823 H 94.19393048603578 90.37110836917242 75.66821712140259 H 0.0 **** 0.06
6824 H 95.26270389380073 90.48865481468206 77.08735131418558 H 0.0 **** 0.06
6825 H 93.55839680184852 90.98535778482258 77.21443778094735 H 0.0 **** 0.06
6826 C 50.55672522752147 82.43201328214786 57.24308432937451 C 0.0 **** -0.24
6827 H 51.29968949476029 82.87900377775796 57.90389079475736 H 0.0 **** 0.06
6828 H 50.27359872127033 81.45113428290585 57.62702629480199 H 0.0 **** 0.06
6829 H 50.978272299767724 82.32322996806752 56.243096375348955 H 0.0 **** 0.06
6830 H 49.67737062845606 83.07388030758773 57.19880421850348 H 0.0 **** 0.06
6831 C 38.20580339376056 106.46779190414239 29.7599598095253 C 0.0 **** -0.24
6832 H 37.888353258421915 107.50961863365563 29.800678734348026 H 0.0 **** 0.06
6833 H 37.40838607469152 105.83012430845127 30.143411644108767 H 0.0 **** 0.06
6834 H 39.10102250028521 106.33668749621933 30.36862803783373 H 0.0 **** 0.06
6835 H 38.42569963730398 106.19503489561669 28.72804276034765 H 0.0 **** 0.06
6836 C 1.9111034032764564 78.93397117169047 90.68951936929994 C 0.0 **** -0.24
6837 H 2.1287108112642823 78.61189229802258 91.70781244049763 H 0.0 **** 0.06
6838 H 2.72279747401997 79.56511914991958 90.32715966186441 H 0.0 **** 0.06
6839 H 0.9786544499278698 79.49873650777658 90.67904755733844 H 0.0 **** 0.06
6840 H 1.8136903669711888 78.06031707620787 90.04486612541461 H 0.0 **** 0.06
6841 C 71.41664531004793 116.06245284370492 33.611131611535825 C 0.0 **** -0.24
6842 H 72.27188416247901 116.73149281798365 33.705934477608196 H 0.0 **** 0.06
6843 H 70.5676521775247 116.47997865265405 34.15317540809525 H 0.0 **** 0.06
6844 H 71.66931256209378 115.08739208010147 34.026082522050785 H 0.0 **** 0.06
6845 H 71.15678466958721 115.95310683964557 32.55867001463815 H 0.0 **** 0.06
6846 C 85.49899355963538 43.62140591183942 3.1288526385814066 C 0.0 **** -0.24
6847 H 84.52666510035232 43.160829770932224 2.953673978338543 H 0.0 **** 0.06
6848 H 86.25628190289333 42.84303115438456 3.2280026998653284 H 0.0 **** 0.06
6849 H 85.46083132613595 44.21157510342587 4.044589255604819 H 0.0 **** 0.06
6850 H 85.75062842904319 44.268592848954796 2.2891416869370005 H 0.0 **** 0.06
6851 C 112.29238529697471 66.53902006150778 42.858073219173164 C 0.0 **** -0.24
6852 H 112.99533198202403 67.36072014969807 42.99691673380041 H 0.0 **** 0.06
6853 H 111.27712253761001 66.93264641163435 42.82020055783055 H 0.0 **** 0.06
6854 H 112.38154861907418 65.84070823876363 43.69018022126867 H 0.0 **** 0.06
6855 H 112.51834443452555 66.02195536511894 41.92534488021717 H 0.0 **** 0.06
6856 C 54.19315139144791 62.57034177843127 117.51985176721831 C 0.0 **** -0.24
6857 H 53.60890340832489 61.96454402361064 116.82655601792197 H 0.0 **** 0.06
6858 H 55.06278470374215 62.976624259667574 117.0035824550324 H 0.0 **** 0.06
6859 H 54.521895210783754 61.951187047773715 118.35517179771077 H 0.0 **** 0.06
6860 H 53.57653648883823 63.38756948760522 117.89495780837308 H 0.0 **** 0.06
6861 C 56.797245184494834 34.83388546511934 35.53089432748339 C 0.0 **** -0.24
6862 H 57.05024428746072 35.87009169563064 35.304137337852005 H 0.0 **** 0.06
6863 H 57.04469877066308 34.62040003451161 36.570905039979074 H 0.0 **** 0.06
6864 H 57.363036642321724 34.17064629072829 34.87782672041823 H 0.0 **** 0.06
6865 H 55.73038448196956 34.677925686199885 35.371811513830664 H 0.0 **** 0.06
6866 C 43.72751241522474 83.18796579404014 53.911494202969834 C 0.0 **** -0.24
6867 H 43.79795869727019 83.57308647264975 52.893872467575704 H 0.0 **** 0.06
6868 H 43.07105862198409 82.31660233068934 53.924640859753765 H 0.0 **** 0.06
6869 H 43.32182751381191 83.9593612903829 54.565515820077906 H 0.0 **** 0.06
6870 H 44.71963747432852 82.90044478339183 54.26015755172148 H 0.0 **** 0.06
6871 C 53.32222230603642 3.8076700470280063 6.577706943607012 C 0.0 **** -0.24
6872 H 52.335220440938315 3.4424398055440424 6.294912450733335 H 0.0 **** 0.06
6873 H 53.35439154498914 4.891775190091563 6.462768561683049 H 0.0 **** 0.06
6874 H 54.07620305810072 3.351003693141438 5.936945360077033 H 0.0 **** 0.06
6875 H 53.52122944198226 3.5465918663178044 7.61735012428818 H 0.0 **** 0.06
6876 C 88.21537932783653 103.24100895105508 118.0393522972729 C 0.0 **** -0.24
6877 H 89.17936639317469 102.86550127654172 118.3813734133925 H 0.0 **** 0.06
6878 H 87.96301187902702 102.77736520592114 117.08603404999187 H 0.0 **** 0.06
6879 H 88.26966130779121 104.32200248570308 117.91560279991333 H 0.0 **** 0.06
6880 H 87.4487754311198 102.99822466861488 118.7756714314219 H 0.0 **** 0.06
6881 C 81.67486695899288 75.67612521555259 63.42120309756177 C 0.0 **** -0.24
6882 H 80.62044163128846 75.67704849575463 63.14774586753401 H 0.0 **** 0.06
6883 H 82.28301555277775 75.80331892066246 62.52578833321178 H 0.0 **** 0.06
6884 H 81.92485180661004 74.72764285132735 63.89852841446816 H 0.0 **** 0.06
6885 H 81.8716700989279 76.49406961245512 64.11412015246066 H 0.0 **** 0.06
6886 C 42.59383595361081 76.47114731947804 28.555444193571674 C 0.0 **** -0.24
6887 H 42.3835865329045 77.12855120523813 27.71207366094174 H 0.0 **** 0.06
6888 H 42.154254957063415 76.88912894109498 29.461113274984058 H 0.0 **** 0.06
6889 H 43.67324788589673 76.37924668001682 28.683439626372916 H 0.0 **** 0.06
6890 H 42.16686998111416 75.48707255832863 28.364249416958955 H 0.0 **** 0.06
6891 C 78.9650627627233 35.84350062736826 0.7724632058199035 C 0.0 **** -0.24
6892 H 79.08064373390107 34.93491411437538 1.3634371128968041 H 0.0 **** 0.06
6893 H 79.84406227318124 36.47455239713971 0.9018350129921942 H 0.0 **** 0.06
6894 H 78.07837056199449 36.382965339321515 1.1064592772174535 H 0.0 **** 0.06
6895 H 78.85565084799961 35.58136697367127 -0.27997138194064064 H 0.0 **** 0.06
6896 C 30.458815990995618 48.2388285947863 55.33555369148695 C 0.0 **** -0.24
6897 H 29.741019847468465 47.46287995551975 55.602092601365484 H 0.0 **** 0.06
6898 H 30.026500376380113 48.88885563052344 54.575784286873386 H 0.0 **** 0.06
6899 H 31.364562258170167 47.77510796622164 54.944814076566786 H 0.0 **** 0.06
6900 H 30.70404397448891 48.82528384538594 56.22128450424401 H 0.0 **** 0.06
6901 C 58.298164039240795 104.85857170353015 68.94562266116617 C 0.0 **** -0.24
6902 H 58.222685843480754 104.48431798623744 69.96617139506728 H 0.0 **** 0.06
6903 H 57.30564589574457 104.89199812536904 68.49648908603558 H 0.0 **** 0.06
6904 H 58.93942403982236 104.19622094052889 68.36318578965512 H 0.0 **** 0.06
6905 H 58.726992328614564 105.86048713661529 68.956817205612 H 0.0 **** 0.06
6906 C 23.856192711505344 47.65292227981382 41.520124434689315 C 0.0 **** -0.24
6907 H 24.826050628150227 48.144911270398154 41.4416574559139 H 0.0 **** 0.06
6908 H 23.91136221354813 46.859837254148374 42.266815886089745 H 0.0 **** 0.06
6909 H 23.58592121919085 47.225235355457926 40.5546231205993 H 0.0 **** 0.06
6910 H 23.103517518723805 48.381952519705635 41.81867003596044 H 0.0 **** 0.06
6911 C 86.23406254631516 50.3981438850158 98.57612469164565 C 0.0 **** -0.24
6912 H 86.3600742691581 49.35453370810308 98.28579990268167 H 0.0 **** 0.06
6913 H 87.19862482779831 50.81222123225625 98.86970623168867 H 0.0 **** 0.06
6914 H 85.54036438096603 50.459738601921444 99.4142830784603 H 0.0 **** 0.06
6915 H 85.8360888490474 50.96327226516249 97.73333087542903 H 0.0 **** 0.06
6916 C 61.63065758565023 26.038413537175046 58.810683179318886 C 0.0 **** -0.24
6917 H 61.120829656359724 26.99624547314224 58.70333290997053 H 0.0 **** 0.06
6918 H 61.439420183704634 25.634677164811478 59.804809807521735 H 0.0 **** 0.06
6919 H 62.70277403508242 26.181369142784973 58.6768752434449 H 0.0 **** 0.06
6920 H 61.260242655047925 25.34259453675449 58.05799250177597 H 0.0 **** 0.06
6921 C 65.67441587100299 69.20635024809457 22.494876903856795 C 0.0 **** -0.24
6922 H 65.62956878811545 70.19789931595645 22.944843266977315 H 0.0 **** 0.06
6923 H 66.70820633425555 68.86097018774907 22.478583611863815 H 0.0 **** 0.06
6924 H 65.2898007963511 69.25344039971864 21.475062483423795 H 0.0 **** 0.06
6925 H 65.06773771272535 68.51373222515747 23.079266778264213 H 0.0 **** 0.06
6926 C 63.54850202194484 9.791804147936546 88.00535070310312 C 0.0 **** -0.24
6927 H 63.23220608178906 10.83336008114054 88.0761800095174 H 0.0 **** 0.06
6928 H 63.18023466013858 9.363387893770152 87.07326260444358 H 0.0 **** 0.06
6929 H 63.14380262234039 9.23194942968604 88.84868911638443 H 0.0 **** 0.06
6930 H 64.63726074801389 9.74130165161256 88.02333717803444 H 0.0 **** 0.06
6931 C 106.13105540981675 112.988503304806 110.77455998348962 C 0.0 **** -0.24
6932 H 105.55311204865666 112.20077000476306 111.25920456028805 H 0.0 **** 0.06
6933 H 105.72870737309924 113.96137882623685 111.059215779723 H 0.0 **** 0.06
6934 H 106.06941720023298 112.87105761043614 109.69282813696299 H 0.0 **** 0.06
6935 H 107.17224697840206 112.91941930219463 111.08887043581484 H 0.0 **** 0.06
6936 C 70.04490358723737 74.66473575308643 62.9021276137342 C 0.0 **** -0.24
6937 H 68.95641269827189 74.6505819851312 62.847056556163004 H 0.0 **** 0.06
6938 H 70.35956573654357 74.39421707079646 63.91055312055912 H 0.0 **** 0.06
6939 H 70.40688836064291 75.66483572589655 62.66434069591259 H 0.0 **** 0.06
6940 H 70.4539481348989 73.94973807262826 62.18879150618968 H 0.0 **** 0.06
6941 C 113.30461000091921 74.27046622545811 39.97944536607673 C 0.0 **** -0.24
6942 H 113.167776184366 73.22945989243303 40.27040555293809 H 0.0 **** 0.06
6943 H 113.59039620641227 74.31927513778166 38.92787339662203 H 0.0 **** 0.06
6944 H 114.0893041806762 74.71837796226646 40.58998754297369 H 0.0 **** 0.06
6945 H 112.37259717099862 74.81551084275287 40.1281901282004 H 0.0 **** 0.06
6946 C 29.770781585775467 53.152548673298156 73.51886145620358 C 0.0 **** -0.24
6947 H 29.25289147114836 52.21319364514187 73.71235958484613 H 0.0 **** 0.06
6948 H 30.553725113910644 52.99013429507448 72.77886854791302 H 0.0 **** 0.06
6949 H 30.21519063152064 53.51913932710988 74.44410383178376 H 0.0 **** 0.06
6950 H 29.059084691177134 53.887644042994964 73.141114208879 H 0.0 **** 0.06
6951 C 29.509195179730625 91.70339940978636 84.65394481896655 C 0.0 **** -0.24
6952 H 29.938938873753443 90.84704606627474 85.1750599351742 H 0.0 **** 0.06
6953 H 29.174008611825002 91.39417391174817 83.6642458301258 H 0.0 **** 0.06
6954 H 30.26390575644183 92.48399132380109 84.55594582617647 H 0.0 **** 0.06
6955 H 28.661559593509537 92.08595842382226 85.22286054770254 H 0.0 **** 0.06
6956 C 79.94098476747854 2.390263187048305 77.33512319450372 C 0.0 **** -0.24
6957 H 79.21076405718111 1.8869339324135126 76.70072269086549 H 0.0 **** 0.06
6958 H 79.58639690874108 3.3946023649690744 77.56990590312174 H 0.0 **** 0.06
6959 H 80.89433835376096 2.4550426923997293 76.810548001065 H 0.0 **** 0.06
6960 H 80.07123373510191 1.82542414982629 78.257407614123 H 0.0 **** 0.06
6961 C 70.98282944706543 36.46144992542047 54.14068790246233 C 0.0 **** -0.24
6962 H 71.0670143352811 35.45486659338152 54.54954292790882 H 0.0 **** 0.06
6963 H 70.41267394017041 37.086364228737175 54.82902390817674 H 0.0 **** 0.06
6964 H 70.47357331064049 36.421751505111686 53.17784950235057 H 0.0 **** 0.06
6965 H 71.97915449101919 36.883248744525886 54.007114885790656 H 0.0 **** 0.06
6966 C 29.30908506487726 31.785275043689296 51.13515223936392 C 0.0 **** -0.24
6967 H 28.58883489558722 30.967611148576736 51.15348232931933 H 0.0 **** 0.06
6968 H 30.311592737655936 31.39044079854972 51.302059079863824 H 0.0 **** 0.06
6969 H 29.064208518971732 32.501903914066986 51.91954764305561 H 0.0 **** 0.06
6970 H 29.27058506412456 32.28191969321216 50.165902848948804 H 0.0 **** 0.06
6971 C 0.2663541087658814 12.096706860882392 6.8679057755429085 C 0.0 **** -0.24
6972 H 1.2568436393397633 11.931838465861802 7.292762821566484 H 0.0 **** 0.06
6973 H -0.24812936700163846 12.872289427486038 7.4351350034939685 H 0.0 **** 0.06
6974 H -0.30680120317848036 11.170669880777837 6.914832078828056 H 0.0 **** 0.06
6975 H 0.36482600463256176 12.411709885627573 5.828507864341688 H 0.0 **** 0.06
6976 C 24.282258050668503 37.97145548773261 109.97038959164519 C 0.0 **** -0.24
6977 H 23.488668285800486 37.5717494204296 109.33909416716136 H 0.0 **** 0.06
6978 H 25.249325265281584 37.64447675034879 109.58779515760672 H 0.0 **** 0.06
6979 H 24.1527527922739 37.609185998294265 110.98989571392538 H 0.0 **** 0.06
6980 H 24.23805599994742 39.06053322949913 109.96255246811184 H 0.0 **** 0.06
6981 C 3.065750655055661 82.62640322793493 41.653141384188274 C 0.0 **** -0.24
6982 H 3.673944017221098 83.38715376479036 42.14293118544853 H 0.0 **** 0.06
6983 H 2.225700285281805 82.36348063009811 42.29679790113755 H 0.0 **** 0.06
6984 H 3.672904471585161 81.73986577391469 41.46869034885495 H 0.0 **** 0.06
6985 H 2.6906979101930535 83.01373965953832 40.705894062269806 H 0.0 **** 0.06
6986 C 56.11278759699781 1.8645004317935445 92.82702294288225 C 0.0 **** -0.24
6987 H 56.287465920433014 1.0557090075895417 92.11784140410975 H 0.0 **** 0.06
6988 H 55.05493885416541 1.8957490746046375 93.087925469001 H 0.0 **** 0.06
6989 H 56.404128919585936 2.813207512939769 92.37463951765585 H 0.0 **** 0.06
6990 H 56.70426778280518 1.6937331382937941 93.72683643688583 H 0.0 **** 0.06
6991 C 100.56331337236875 23.689025887783373 95.97181624783195 C 0.0 **** -0.24
6992 H 99.55037953650094 23.28545297476751 95.98625842648593 H 0.0 **** 0.06
6993 H 100.66298179610112 24.44687399366029 96.74962990856815 H 0.0 **** 0.06
6994 H 100.76062004366136 24.13802046678751 94.99900720010726 H 0.0 **** 0.06
6995 H 101.27659262645108 22.88541942987308 96.15321056357561 H 0.0 **** 0.06
6996 C 20.02227383928146 73.72905795895727 98.78732628397887 C 0.0 **** -0.24
6997 H 19.07390752978001 73.21735171903515 98.95355408371336 H 0.0 **** 0.06
6998 H 19.99203291693911 74.7111480581845 99.2591547369552 H 0.0 **** 0.06
6999 H 20.18932665383556 73.84385650951134 97.71689919691352 H 0.0 **** 0.06
7000 H 20.831209662657077 73.14159429270416 99.22108983330656 H 0.0 **** 0.06
7001 C 106.17903574538909 43.26283714192917 117.07256475319329 C 0.0 **** -0.24
7002 H 106.39374958245463 43.35845094847389 116.00840146069689 H 0.0 **** 0.06
7003 H 106.67447179934274 44.06801516635588 117.61700497627655 H 0.0 **** 0.06
7004 H 106.54489242996954 42.30203028751433 117.43289039742623 H 0.0 **** 0.06
7005 H 105.10271327376199 43.324788548378166 117.23235059154104 H 0.0 **** 0.06
7006 C 35.244209068990074 23.99120029007561 19.168792252901255 C 0.0 **** -0.24
7007 H 35.963597478132755 23.34636406278124 18.66641790434005 H 0.0 **** 0.06
7008 H 35.70193594461719 24.960363621508456 19.37034916920129 H 0.0 **** 0.06
7009 H 34.937663172718715 23.531840881317684 20.109049756293075 H 0.0 **** 0.06
7010 H 34.37043495648825 24.12776610372655 18.530526453429047 H 0.0 **** 0.06
7011 C 21.84317368003519 105.65666554835965 101.51413877437511 C 0.0 **** -0.24
7012 H 21.9310606038892 105.25205584410668 100.50541557397861 H 0.0 **** 0.06
7013 H 22.832787605886438 105.93011890573891 101.88189709430401 H 0.0 **** 0.06
7014 H 21.406086043321405 104.90476976125194 102.17041816108616 H 0.0 **** 0.06
7015 H 21.204726255605635 106.53960324262562 101.49634976525971 H 0.0 **** 0.06
7016 C 98.36028009080954 103.39665244665585 7.748621753127679 C 0.0 **** -0.24
7017 H 99.23357856851703 102.85277989355774 8.10859672416666 H 0.0 **** 0.06
7018 H 97.62084995360127 103.4646821560155 8.546548189741088 H 0.0 **** 0.06
7019 H 97.9300751462304 102.86885131609407 6.896828171395384 H 0.0 **** 0.06
7020 H 98.6582626351661 104.39888563583114 7.441373349597427 H 0.0 **** 0.06
7021 C 8.27171106186178 20.936576805135104 11.679512556231373 C 0.0 **** -0.24
7022 H 8.752756563216053 20.983597691922427 10.702606817305934 H 0.0 **** 0.06
7023 H 7.327308789356209 20.398068907231192 11.594399566576868 H 0.0 **** 0.06
7024 H 8.082509210528855 21.947884415917173 12.040206576918052 H 0.0 **** 0.06
7025 H 8.924538107852314 20.41627943973657 12.381674343461185 H 0.0 **** 0.06
7026 C 67.0560517091011 18.276133990057986 2.48993107303383 C 0.0 **** -0.24
7027 H 66.54627942281633 19.12038027562477 2.0258017906694334 H 0.0 **** 0.06
7028 H 67.52514720114783 17.66621841645855 1.7170953511031115 H 0.0 **** 0.06
7029 H 66.33413257764681 17.673416677821763 3.0405744708164235 H 0.0 **** 0.06
7030 H 67.81942956449177 18.646176866534347 3.1749698592695097 H 0.0 **** 0.06
7031 C 95.78048957084948 113.56563872659714 8.303004749180836 C 0.0 **** -0.24
7032 H 94.72336541586685 113.30337042425242 8.27335051707864 H 0.0 **** 0.06
7033 H 96.37606908791406 112.66048586727139 8.425772689107205 H 0.0 **** 0.06
7034 H 95.96375573658986 114.23861745946701 9.140290049128009 H 0.0 **** 0.06
7035 H 96.05788885521247 114.05964720480101 7.372408829691864 H 0.0 **** 0.06
7036 C 97.88649308216384 48.99342649431989 33.23877918479462 C 0.0 **** -0.24
7037 H 97.3770717218024 49.75094266518471 32.64252190620047 H 0.0 **** 0.06
7038 H 97.9266547407936 49.31728943043689 34.27897504747153 H 0.0 **** 0.06
7039 H 98.89980898908308 48.85559048199897 32.861323642851886 H 0.0 **** 0.06
7040 H 97.34263673899659 48.05208388199483 33.17195230336793 H 0.0 **** 0.06
7041 C 6.567017474101764 106.12723446767595 99.83135486307359 C 0.0 **** -0.24
7042 H 6.309281243022907 106.20247850850154 100.887987706437 H 0.0 **** 0.06
7043 H 6.803924722801803 107.11867048317956 99.44406400565907 H 0.0 **** 0.06
7044 H 5.722199011518343 105.71376140497222 99.28033365419316 H 0.0 **** 0.06
7045 H 7.43177635112357 105.4751204223617 99.7131606882208 H 0.0 **** 0.06
7046 C 27.042610851992094 105.53176159437518 60.98066546469269 C 0.0 **** -0.24
7047 H 27.997225774519336 105.22906657733083 60.54978999219193 H 0.0 **** 0.06
7048 H 27.085467086521845 106.58728187729372 61.2502946125141 H 0.0 **** 0.06
7049 H 26.840336989554032 104.93645162029335 61.8703956596473 H 0.0 **** 0.06
7050 H 26.24858729952058 105.37500181607643 60.25016866618168 H 0.0 **** 0.06
7051 C 85.70054601155417 24.748746312553024 28.15736592348013 C 0.0 **** -0.24
7052 H 85.08219798639732 25.34139416441576 28.83198644466019 H 0.0 **** 0.06
7053 H 85.11091283476892 23.92420950673835 27.75545747880382 H 0.0 **** 0.06
7054 H 86.55519976658533 24.351212945305377 28.704843553825413 H 0.0 **** 0.06
7055 H 86.05244352281673 25.37724251785059 27.340021956872192 H 0.0 **** 0.06
7056 C 0.5878074771933939 115.2904391075311 53.388375973756645 C 0.0 **** -0.24
7057 H -0.28984517792542874 115.91481874784422 53.55445856713495 H 0.0 **** 0.06
7058 H 0.2796986401028505 114.3439950870743 52.94339702539491 H 0.0 **** 0.06
7059 H 1.0836943656851759 115.10077299081111 54.34085357720695 H 0.0 **** 0.06
7060 H 1.2753488283361492 115.8020465434169 52.71553034731712 H 0.0 **** 0.06
7061 C 52.083035790790916 91.93925838840073 25.03338694878414 C 0.0 **** -0.24
7062 H 51.62533595399253 92.67102716852878 24.36633373626526 H 0.0 **** 0.06
7063 H 52.23583001873186 92.38907186954378 26.0142392845855 H 0.0 **** 0.06
7064 H 53.04288486266154 91.62586707967341 24.6229734890492 H 0.0 **** 0.06
7065 H 51.42705334496395 91.07391824742729 25.12781171726087 H 0.0 **** 0.06
7066 C 108.66388729083334 28.768046309300807 49.55369790466001 C 0.0 **** -0.24
7067 H 109.15448447717063 27.886885802776995 49.965708900008785 H 0.0 **** 0.06
7068 H 107.75778505311018 28.46740908345953 49.028907006544735 H 0.0 **** 0.06
7069 H 109.33938955016467 29.26633637020869 48.85801240839943 H 0.0 **** 0.06
7070 H 108.40614630062663 29.452133784023346 50.362920707831734 H 0.0 **** 0.06
7071 C 26.862085643937604 74.64291396612006 28.43031403046615 C 0.0 **** -0.24
7072 H 27.745677288204234 74.19582290121889 28.887596274259636 H 0.0 **** 0.06
7073 H 26.241745616630766 75.09422023272589 29.203724910404617 H 0.0 **** 0.06
7074 H 26.293131222137873 73.87165147890653 27.9100874695597 H 0.0 **** 0.06
7075 H 27.170909789029167 75.40882391424614 27.718125689917315 H 0.0 **** 0.06
7076 C 57.038872335300994 27.953756539255757 48.69707623682581 C 0.0 **** -0.24
7077 H 56.98961137711615 26.877549577049727 48.86423643036187 H 0.0 **** 0.06
7078 H 57.26680673153197 28.148419651161184 47.64853638433374 H 0.0 **** 0.06
7079 H 57.820016207825404 28.38293432667966 49.32427016686188 H 0.0 **** 0.06
7080 H 56.08024800771096 28.40540556148465 48.951011443423226 H 0.0 **** 0.06
7081 C 66.61922498626782 23.18390443376405 109.50835471415314 C 0.0 **** -0.24
7082 H 67.39008606448297 23.050881086695178 110.26746377108842 H 0.0 **** 0.06
7083 H 66.42637207761021 22.229693160567933 109.01627822282646 H 0.0 **** 0.06
7084 H 66.95647245240608 23.9111755293822 108.77040389043412 H 0.0 **** 0.06
7085 H 65.70325220284693 23.54126722894282 109.97842304647756 H 0.0 **** 0.06
7086 C 38.14390468584733 92.66625946825411 92.91475816428783 C 0.0 **** -0.24
7087 H 37.973144905376614 93.71837945570564 92.68967124522266 H 0.0 **** 0.06
7088 H 39.215211278200485 92.4790498917292 92.98932585671378 H 0.0 **** 0.06
7089 H 37.72227195283563 92.05128661020004 92.11918488772255 H 0.0 **** 0.06
7090 H 37.664364349479996 92.413954268668 93.86089967704379 H 0.0 **** 0.06
7091 C 1.8147826536717275 114.09281226600712 89.85566818823239 C 0.0 **** -0.24
7092 H 1.2042076816201757 113.7385440867499 90.68636358675266 H 0.0 **** 0.06
7093 H 1.171873694026985 114.32674973356822 89.0060935878654 H 0.0 **** 0.06
7094 H 2.5253191809318594 113.31693570518658 89.57096489827177 H 0.0 **** 0.06
7095 H 2.3562704016452614 114.98810607687315 90.15906315271403 H 0.0 **** 0.06
7096 C 66.38735454713554 10.530940970276532 75.57634038982661 C 0.0 **** -0.24
7097 H 67.38092709577967 10.61595358360816 76.01520477859751 H 0.0 **** 0.06
7098 H 66.02077104169865 9.512472159479216 75.70305803569909 H 0.0 **** 0.06
7099 H 66.43809512906194 10.76948926778843 74.51355596938737 H 0.0 **** 0.06
7100 H 65.71062558485067 11.226807702282912 76.07326093865666 H 0.0 **** 0.06
7101 C 107.24439767338026 91.34342626599778 97.35788470637138 C 0.0 **** -0.24
7102 H 107.6222916179347 92.02219333221765 96.59238415856623 H 0.0 **** 0.06
7103 H 106.47397040497216 90.70334052565312 96.92682589885112 H 0.0 **** 0.06
7104 H 106.82074231995949 91.92223531418642 98.1782588662673 H 0.0 **** 0.06
7105 H 108.0614654943547 90.72705138684941 97.73207412405836 H 0.0 **** 0.06
7106 C 74.575181086854 54.732950067773714 31.330884367652885 C 0.0 **** -0.24
7107 H 74.61565394506101 54.192700651774175 32.277938337134515 H 0.0 **** 0.06
7108 H 74.22578368294998 55.74998395037832 31.508262757320622 H 0.0 **** 0.06
7109 H 73.88935673335166 54.22506305794994 30.653106169181967 H 0.0 **** 0.06
7110 H 75.56978136909063 54.762725696910366 30.886916791989563 H 0.0 **** 0.06
7111 C 74.13275321104075 103.24730954004474 33.45429302760864 C 0.0 **** -0.24
7112 H 74.163239699136 103.14790250222643 32.36938226220968 H 0.0 **** 0.06
7113 H 73.35671144344369 102.59540632561874 33.856293009395074 H 0.0 **** 0.06
7114 H 73.91278414969887 104.281625055206 33.71793022676398 H 0.0 **** 0.06
7115 H 75.09878779388583 102.96346699003226 33.87155691153836 H 0.0 **** 0.06
7116 C 12.454678101062076 97.93189364806767 5.996594339647061 C 0.0 **** -0.24
7117 H 12.546425077789667 99.00046640860285 6.193676494405622 H 0.0 **** 0.06
7118 H 13.30838901993761 97.59632470417893 5.408262215285674 H 0.0 **** 0.06
7119 H 11.535139770125628 97.74357254999234 5.442315529599625 H 0.0 **** 0.06
7120 H 12.427220172350143 97.38959682131929 6.941152818674766 H 0.0 **** 0.06
7121 C 53.0291272955954 113.63748546216111 9.598787965346673 C 0.0 **** -0.24
7122 H 52.29068841531728 114.30988808110112 9.162372688262735 H 0.0 **** 0.06
7123 H 52.542017986974656 112.7108763285344 9.902265471765702 H 0.0 **** 0.06
7124 H 53.48311616918028 114.11244495575856 10.468821978176152 H 0.0 **** 0.06
7125 H 53.80125876155125 113.41836519490056 8.861607628089473 H 0.0 **** 0.06
7126 C 26.243818489897507 106.89744970431411 28.330586251351107 C 0.0 **** -0.24
7127 H 25.23023374206653 106.63890267370022 28.63944714007178 H 0.0 **** 0.06
7128 H 26.24414043660181 107.8929403260351 27.884923849636948 H 0.0 **** 0.06
7129 H 26.5962650808182 106.17054419224627 27.598891410882715 H 0.0 **** 0.06
7130 H 26.90090944898256 106.88765482847165 29.199335934852712 H 0.0 **** 0.06
7131 C 9.069021900259713 60.85353887215069 63.210264282143605 C 0.0 **** -0.24
7132 H 10.110999352656052 60.62392702455696 62.990933786916976 H 0.0 **** 0.06
7133 H 8.756802819024983 60.31166145870799 64.10364424046068 H 0.0 **** 0.06
7134 H 8.446333542282844 60.5548214465573 62.36647359265633 H 0.0 **** 0.06
7135 H 8.961668887379119 61.92561632578662 63.37881368859896 H 0.0 **** 0.06
7136 C 62.811360035576776 38.73140792006279 89.39058009014309 C 0.0 **** -0.24
7137 H 62.36498352456504 38.631051808395796 88.401502640737 H 0.0 **** 0.06
7138 H 62.859593910483134 39.78610085808879 89.66189334347095 H 0.0 **** 0.06
7139 H 63.81856407841794 38.31252232472008 89.37839162246345 H 0.0 **** 0.06
7140 H 62.20463005062357 38.19540347428625 90.12002405236879 H 0.0 **** 0.06
7141 C 27.29816826098005 16.505725334784046 104.68942838663503 C 0.0 **** -0.24
7142 H 28.120626886469836 16.109784479497108 104.09193918961455 H 0.0 **** 0.06
7143 H 26.571468243850347 16.98422927723624 104.03304692797823 H 0.0 **** 0.06
7144 H 27.684448313059477 17.235935040828906 105.39982898936222 H 0.0 **** 0.06
7145 H 26.81832656396091 15.690102442750685 105.23065092040224 H 0.0 **** 0.06
7146 C 108.45609176676135 60.939624633851224 48.597669324029994 C 0.0 **** -0.24
7147 H 109.34829150520065 61.1128512709696 47.99653149732973 H 0.0 **** 0.06
7148 H 108.59930939497406 61.36432493000768 49.59068335799466 H 0.0 **** 0.06
7149 H 108.27879080782256 59.86743350138522 48.682334075912024 H 0.0 **** 0.06
7150 H 107.59864358473351 61.412314035140525 48.11968830280395 H 0.0 **** 0.06
7151 C 76.28294312506293 7.058609695987286 32.710285473081285 C 0.0 **** -0.24
7152 H 76.25127828758559 8.14427712955785 32.80689905469026 H 0.0 **** 0.06
7153 H 75.57864058318461 6.611775294910956 33.41170652555644 H 0.0 **** 0.06
7154 H 77.28979571211491 6.703826680470655 32.93034784158415 H 0.0 **** 0.06
7155 H 76.01182632559022 6.776642522883293 31.693456728353418 H 0.0 **** 0.06
7156 C 36.74044591470954 56.784988572270095 33.77221524796184 C 0.0 **** -0.24
7157 H 35.901758972196205 56.66672276113081 33.08527343961359 H 0.0 **** 0.06
7158 H 37.675887145597045 56.74464171368868 33.21371597948385 H 0.0 **** 0.06
7159 H 36.72219366867631 55.98338400688942 34.50933086751263 H 0.0 **** 0.06
7160 H 36.660608667780735 57.74718911102087 34.2784708451145 H 0.0 **** 0.06
7161 C 18.79620466397128 39.884383214611205 105.40750612797655 C 0.0 **** -0.24
7162 H 19.242154299648092 39.0092552676461 105.87938272862527 H 0.0 **** 0.06
7163 H 18.27779632912214 39.580222980712676 104.4972083607008 H 0.0 **** 0.06
7164 H 19.578532985764667 40.60138130160556 105.15843643344769 H 0.0 **** 0.06
7165 H 18.085867196841093 40.34508623667449 106.09387335270048 H 0.0 **** 0.06
7166 C 118.57983942529185 59.80674369945507 16.786128140186747 C 0.0 **** -0.24
7167 H 118.41970264919654 60.68846029085404 17.406280225166014 H 0.0 **** 0.06
7168 H 118.99871190424521 60.11021702417764 15.82572225527609 H 0.0 **** 0.06
7169 H 117.62886339683524 59.29885239413727 16.623688553766556 H 0.0 **** 0.06
7170 H 119.27163196502072 59.13080432536026 17.287845750406774 H 0.0 **** 0.06
7171 C 13.73081827750024 78.17164715071732 88.5470580223892 C 0.0 **** -0.24
7172 H 13.502314695726763 77.47229607015123 87.74330700203399 H 0.0 **** 0.06
7173 H 13.266969804485996 77.82619196432182 89.47145454459411 H 0.0 **** 0.06
7174 H 13.34260072029544 79.15702488810041 88.29206521807254 H 0.0 **** 0.06
7175 H 14.810920046139113 78.22995401586655 88.68212858734051 H 0.0 **** 0.06
7176 C 58.45118095707476 8.166210257853205 18.41355814745981 C 0.0 **** -0.24
7177 H 58.007506251254505 7.718672150572626 19.301945937646167 H 0.0 **** 0.06
7178 H 57.73703587065457 8.852349324101183 17.95728454789483 H 0.0 **** 0.06
7179 H 58.70755203425775 7.38274114672296 17.700900759533653 H 0.0 **** 0.06
7180 H 59.352919429669235 8.712786258236086 18.69268727693759 H 0.0 **** 0.06
7181 C 30.82328122440871 60.905176783125285 3.927364182142327 C 0.0 **** -0.24
7182 H 31.097277949132348 61.001734763034335 4.978003001436051 H 0.0 **** 0.06
7183 H 30.681221813894616 61.89660990052775 3.496994479851679 H 0.0 **** 0.06
7184 H 29.89814000961134 60.33623485998433 3.843565004194076 H 0.0 **** 0.06
7185 H 31.619540558883386 60.38724900303134 3.391532555886755 H 0.0 **** 0.06
7186 C 19.015068510912215 36.76371672726282 19.126271576225882 C 0.0 **** -0.24
7187 H 19.092160998680242 35.73330641985444 19.472103715100076 H 0.0 **** 0.06
7188 H 18.412777260674886 37.33843650841078 19.829674004756352 H 0.0 **** 0.06
7189 H 18.544772481615098 36.78301164981531 18.14373361184601 H 0.0 **** 0.06
7190 H 20.011715261927236 37.199743798698194 19.060307974545008 H 0.0 **** 0.06
7191 C 35.489976452534194 47.2543537434845 96.50985051549824 C 0.0 **** -0.24
7192 H 36.31212253521184 47.54685929848722 95.8570259888823 H 0.0 **** 0.06
7193 H 35.209177257404946 48.09792734534818 97.14052869518508 H 0.0 **** 0.06
7194 H 35.80390272926533 46.41951641266172 97.13736351278158 H 0.0 **** 0.06
7195 H 34.634961545240486 46.95182625666894 95.90395424563391 H 0.0 **** 0.06
7196 C 30.75800859058421 102.77450651713107 106.98113368065984 C 0.0 **** -0.24
7197 H 30.54182748184229 102.251489383402 106.04962180794348 H 0.0 **** 0.06
7198 H 31.029931660894704 103.80806970461461 106.76267623198459 H 0.0 **** 0.06
7199 H 31.585997888447253 102.2809932563213 107.49086890896297 H 0.0 **** 0.06
7200 H 29.875993800682323 102.75830575402307 107.62076636462231 H 0.0 **** 0.06
7201 C 90.8678749362964 54.17310384523655 81.92938702816582 C 0.0 **** -0.24
7202 H 90.60596305891897 54.59262763110346 82.90094894377944 H 0.0 **** 0.06
7203 H 90.9389192077206 54.97481254409393 81.1943996566124 H 0.0 **** 0.06
7204 H 90.09880429897646 53.46418557582983 81.62045679078847 H 0.0 **** 0.06
7205 H 91.82694410356581 53.65922476996661 82.00263499636375 H 0.0 **** 0.06
7206 C 56.383926663522 61.223516484170375 68.95643075348221 C 0.0 **** -0.24
7207 H 57.210086175688495 61.4237507043365 68.27399885134932 H 0.0 **** 0.06
7208 H 55.537158494313125 60.828839186385096 68.39458372064914 H 0.0 **** 0.06
7209 H 56.09152580130924 62.14795685039769 69.45337265355505 H 0.0 **** 0.06
7210 H 56.697759582173184 60.49327254053418 69.70226400966558 H 0.0 **** 0.06
7211 C 3.3787098551601105 93.16629091438182 7.00199026353414 C 0.0 **** -0.24
7212 H 2.3930740919661275 93.24006037110013 6.543391606917112 H 0.0 **** 0.06
7213 H 4.008585290003509 93.97983470760943 6.641186935223914 H 0.0 **** 0.06
7214 H 3.8319612274767394 92.21048715652302 6.738464251245659 H 0.0 **** 0.06
7215 H 3.2811502700363633 93.23593942858753 8.085727235812556 H 0.0 **** 0.06
7216 C 21.843698511783586 28.157685763550518 71.97480093164043 C 0.0 **** -0.24
7217 H 22.570530273306474 27.346152353333963 71.94260353495548 H 0.0 **** 0.06
7218 H 22.010280874425717 28.828797434967612 71.13153461742252 H 0.0 **** 0.06
7219 H 21.957057948325982 28.71051565499579 72.90715939202371 H 0.0 **** 0.06
7220 H 20.836307258472246 27.745259596324843 71.91711993163989 H 0.0 **** 0.06
7221 C 117.0177912943611 101.91446610781139 28.04379906891272 C 0.0 **** -0.24
7222 H 117.08854312235815 100.90878889804617 28.460330223239396 H 0.0 **** 0.06
7223 H 117.71811332410596 102.57112913394371 28.559908833926727 H 0.0 **** 0.06
7224 H 116.00361081207683 102.29063836911928 28.173721664214128 H 0.0 **** 0.06
7225 H 117.26161722573357 101.88512581588634 26.98208460668397 H 0.0 **** 0.06
7226 C 91.76037499972122 45.246695104909264 109.95033148877025 C 0.0 **** -0.24
7227 H 90.94954805844151 45.961771545219364 110.0950761607861 H 0.0 **** 0.06
7228 H 91.34557788636795 44.24343121289601 109.84580603732228 H 0.0 **** 0.06
7229 H 92.42818397931597 45.276964967465034 110.81145545776945 H 0.0 **** 0.06
7230 H 92.31561182544101 45.506355877255885 109.04954912749028 H 0.0 **** 0.06
7231 C 4.363179444289273 16.66629639969466 95.75837673252815 C 0.0 **** -0.24
7232 H 3.5115871008483026 16.371944790802388 95.14543044766177 H 0.0 **** 0.06
7233 H 5.120826352049605 15.881873353152969 95.72740342846768 H 0.0 **** 0.06
7234 H 4.03569763170087 16.813684043710964 96.78724070819769 H 0.0 **** 0.06
7235 H 4.784223678231996 17.59494859484448 95.3740443494402 H 0.0 **** 0.06
7236 C 47.847446823097386 21.932872458554748 56.87195803486881 C 0.0 **** -0.24
7237 H 47.54958564787566 21.721401176090428 55.84547465552521 H 0.0 **** 0.06
7238 H 47.52763979273621 22.939074828829106 57.142928190187945 H 0.0 **** 0.06
7239 H 48.93232325576972 21.861466809272304 56.95748582312055 H 0.0 **** 0.06
7240 H 47.38161524393202 21.21059809777074 57.54192760418374 H 0.0 **** 0.06
7241 C 17.760618095043398 103.16751440400148 94.96045792129604 C 0.0 **** -0.24
7242 H 17.446669259593794 103.22711802688679 93.91749569256677 H 0.0 **** 0.06
7243 H 18.33630140081147 104.05588414907996 95.2174587235042 H 0.0 **** 0.06
7244 H 18.376504094000307 102.27978100178234 95.10295138772875 H 0.0 **** 0.06
7245 H 16.88059506659981 103.10547741637222 95.6007636773432 H 0.0 **** 0.06
7246 C 0.2170247276352626 58.93342696049672 34.464131406216836 C 0.0 **** -0.24
7247 H 0.9910648153644388 58.77377378363684 35.21458350831438 H 0.0 **** 0.06
7248 H -0.38008694565861845 58.027092760378025 34.36074586604269 H 0.0 **** 0.06
7249 H 0.6817079025138355 59.173567644779155 33.507892648685015 H 0.0 **** 0.06
7250 H -0.4251331721151246 59.75797623709161 34.77343915065012 H 0.0 **** 0.06
7251 C 100.26089138793574 42.39515062952049 48.62214785907349 C 0.0 **** -0.24
7252 H 99.56973931042734 42.841171450779626 49.33825810217786 H 0.0 **** 0.06
7253 H 100.55321046810246 41.40404902482311 48.96913595048224 H 0.0 **** 0.06
7254 H 101.14632125749256 43.024755169707674 48.53102885594163 H 0.0 **** 0.06
7255 H 99.77209080832696 42.31132277973447 47.65098077061904 H 0.0 **** 0.06
7256 C 12.140590613148788 63.484780090068796 11.710256491068648 C 0.0 **** -0.24
7257 H 12.807459347330791 64.29431411625777 12.006818989601708 H 0.0 **** 0.06
7258 H 11.239043260706183 63.9027716787981 11.26203445887504 H 0.0 **** 0.06
7259 H 11.870406478914845 62.89652417323751 12.587455501410012 H 0.0 **** 0.06
7260 H 12.644092657403235 62.84630887698083 10.98543190631462 H 0.0 **** 0.06
7261 C 117.02153458952375 20.659233850415205 76.34656824632859 C 0.0 **** -0.24
7262 H 117.77345634775841 20.403680290280903 77.0932211920981 H 0.0 **** 0.06
7263 H 116.2423021799168 19.897594550269133 76.34032703939673 H 0.0 **** 0.06
7264 H 117.48795330015139 20.710767005409622 75.36325983555898 H 0.0 **** 0.06
7265 H 116.58223453184246 21.627574725944697 76.59165013345066 H 0.0 **** 0.06
7266 C 65.63595560016506 11.195525532715042 46.20186276085457 C 0.0 **** -0.24
7267 H 64.75229694825896 11.826490378855834 46.100885628189864 H 0.0 **** 0.06
7268 H 65.83569045181275 11.016183808485472 47.25843321356863 H 0.0 **** 0.06
7269 H 66.49316992065337 11.696294536818172 45.74993833888936 H 0.0 **** 0.06
7270 H 65.46294773076943 10.24549769713726 45.69761889269455 H 0.0 **** 0.06
7271 C 100.820684799676 76.47938427937626 106.27512944176439 C 0.0 **** -0.24
7272 H 100.74565073497791 76.90106353712048 107.27772112986361 H 0.0 **** 0.06
7273 H 100.03542352652008 75.73733789607326 106.13324418541282 H 0.0 **** 0.06
7274 H 101.79538906285279 76.0054207160535 106.15292961269762 H 0.0 **** 0.06
7275 H 100.7078059401635 77.2737985260369 105.5374303614596 H 0.0 **** 0.06
7276 C 63.90410533932189 1.9342334876917278 108.2799882136342 C 0.0 **** -0.24
7277 H 64.58561484277223 1.0869073449465532 108.3497214593728 H 0.0 **** 0.06
7278 H 63.680575126612865 2.1358608314131686 107.23259516368222 H 0.0 **** 0.06
7279 H 64.36872092489111 2.8126359239034855 108.72860065504972 H 0.0 **** 0.06
7280 H 62.98049630927261 1.7017575689714306 108.81101545756081 H 0.0 **** 0.06
7281 C 0.3477405405330529 117.28997477706731 61.13779798160666 C 0.0 **** -0.24
7282 H -0.24700038403760516 117.69720893755954 61.95608839586024 H 0.0 **** 0.06
7283 H 0.7130910330408398 116.30065995324243 61.411839439412624 H 0.0 **** 0.06
7284 H 1.193753907335207 117.94915351290834 60.94203441372601 H 0.0 **** 0.06
7285 H -0.26960152962243455 117.21581579376775 60.24258807465089 H 0.0 **** 0.06
7286 C 102.5478912374449 79.7596905980862 107.6009694295594 C 0.0 **** -0.24
7287 H 102.56340742151423 78.81149170815098 107.06423239734931 H 0.0 **** 0.06
7288 H 101.54603413015596 80.18704156979976 107.55537259093987 H 0.0 **** 0.06
7289 H 103.2575248485289 80.44894258503098 107.14247684477388 H 0.0 **** 0.06
7290 H 102.82551332651266 79.59273368527161 108.64205875132998 H 0.0 **** 0.06
7291 C 101.97878313689449 23.08810230209182 76.78857847731865 C 0.0 **** -0.24
7292 H 101.49131139948116 23.11186306433555 77.76349864503624 H 0.0 **** 0.06
7293 H 102.92431068946905 22.551538138934106 76.86884759233465 H 0.0 **** 0.06
7294 H 102.16523535336489 24.107251921930555 76.45157680365315 H 0.0 **** 0.06
7295 H 101.3325054067216 22.580406950141167 76.0726377756219 H 0.0 **** 0.06
7296 C 77.26860294300667 57.46747357135561 57.67792296826871 C 0.0 **** -0.24
7297 H 77.34186726401634 56.50248611506396 57.174980426150604 H 0.0 **** 0.06
7298 H 78.26128448066646 57.90897005758072 57.76225415059968 H 0.0 **** 0.06
7299 H 76.84642984109564 57.32695933427286 58.67279490448198 H 0.0 **** 0.06
7300 H 76.62327105831099 58.12939228802168 57.09916911311894 H 0.0 **** 0.06
7301 C 111.22456279138143 32.029498378965116 88.0930972399726 C 0.0 **** -0.24
7302 H 111.47170827822963 32.73290227277067 88.88816052850311 H 0.0 **** 0.06
7303 H 110.83470942471732 32.574962022792874 87.2335506451374 H 0.0 **** 0.06
7304 H 110.47084915405406 31.32748685323395 88.45061391955684 H 0.0 **** 0.06
7305 H 112.12086063314388 31.482016154397 87.80083368527929 H 0.0 **** 0.06
7306 C 23.11616698588663 92.77836255185946 38.67534867374735 C 0.0 **** -0.24
7307 H 23.340439564226564 92.1479044316803 37.81563193700032 H 0.0 **** 0.06
7308 H 22.314099622115517 92.32413681332343 39.258735853256155 H 0.0 **** 0.06
7309 H 22.80306494357692 93.76419228854985 38.33188048513205 H 0.0 **** 0.06
7310 H 24.007056555365686 92.87586867544337 39.29662394515253 H 0.0 **** 0.06
7311 C 5.502262569407186 67.71701099684014 19.24184710053592 C 0.0 **** -0.24
7312 H 5.253182462675751 68.42555547226533 20.03277471175113 H 0.0 **** 0.06
7313 H 4.598318207185651 67.45183642279585 18.694000796134816 H 0.0 **** 0.06
7314 H 5.936648959360095 66.8198859257144 19.68359666000856 H 0.0 **** 0.06
7315 H 6.221758460057554 68.17176716573658 18.56104900177536 H 0.0 **** 0.06
7316 C 96.67808822949797 44.01765554605211 87.66972370380552 C 0.0 **** -0.24
7317 H 97.55266074585228 43.534883150455784 87.23276564820299 H 0.0 **** 0.06
7318 H 96.71355425633345 43.91861539706878 88.75527096656828 H 0.0 **** 0.06
7319 H 95.77371750469604 43.542071678386776 87.28961428226972 H 0.0 **** 0.06
7320 H 96.6743404466605 45.07390650063897 87.40120289342968 H 0.0 **** 0.06
7321 C 72.89905587385604 28.84040123036715 76.98339967028403 C 0.0 **** -0.24
7322 H 72.02380345781322 29.480469224417334 77.09655340233275 H 0.0 **** 0.06
7323 H 73.34955502585413 28.664637812691012 77.96072323852826 H 0.0 **** 0.06
7324 H 73.6240045532204 29.329243606654927 76.33141562110617 H 0.0 **** 0.06
7325 H 72.59944313999989 27.88944153128807 76.54397006697727 H 0.0 **** 0.06
7326 C 106.96565241390013 32.73886578739846 68.32427234118995 C 0.0 **** -0.24
7327 H 106.7573381651938 31.69306621554145 68.10212846633382 H 0.0 **** 0.06
7328 H 107.52004440163338 33.1826997587016 67.49717348473496 H 0.0 **** 0.06
7329 H 107.55801396099145 32.80562636596218 69.23727367733747 H 0.0 **** 0.06
7330 H 106.02666969431587 33.275096666856456 68.46132145761706 H 0.0 **** 0.06
7331 C 44.98455651563143 25.7467370802581 90.69299290115174 C 0.0 **** -0.24
7332 H 44.37786832854533 25.545357680288426 91.5768347702541 H 0.0 **** 0.06
7333 H 44.33417824839345 25.9970318347939 89.85538967597932 H 0.0 **** 0.06
7334 H 45.570892026673995 24.861820644457993 90.44641002661666 H 0.0 **** 0.06
7335 H 45.65464796124891 26.58271299105474 90.89609228649903 H 0.0 **** 0.06
7336 C 4.287913963592928 11.58528359588962 67.94770193487616 C 0.0 **** -0.24
7337 H 3.7541137967740497 10.810778055246146 67.396625587052 H 0.0 **** 0.06
7338 H 5.062548763162624 12.013770656405086 67.31141319527148 H 0.0 **** 0.06
7339 H 4.744398624258622 11.149719472953791 68.83582644519461 H 0.0 **** 0.06
7340 H 3.5875713544166388 12.366690235088015 68.24474491822286 H 0.0 **** 0.06
7341 C 29.857114689161307 108.67228067642935 58.01085654895504 C 0.0 **** -0.24
7342 H 29.524607507575325 109.70898406555841 57.961383258389624 H 0.0 **** 0.06
7343 H 29.906858343272916 108.35571689892808 59.05362815744643 H 0.0 **** 0.06
7344 H 30.84447152849117 108.58519637603484 57.557528458560164 H 0.0 **** 0.06
7345 H 29.151946206021393 108.0393866349309 57.47216822905802 H 0.0 **** 0.06
7346 C 18.173364433776865 108.87674763831868 5.5999593127636444 C 0.0 **** -0.24
7347 H 18.39462695646668 107.83705419397691 5.8401904086581595 H 0.0 **** 0.06
7348 H 17.66195760745504 108.92701549214343 4.637869471586114 H 0.0 **** 0.06
7349 H 19.103943674089788 109.4432311355097 5.547429471717123 H 0.0 **** 0.06
7350 H 17.533684915047576 109.3008434728074 6.374661494636911 H 0.0 **** 0.06
7351 C 75.19714557768233 94.1030310597211 54.66392075587882 C 0.0 **** -0.24
7352 H 74.52823538131483 94.95416546473118 54.53854167847854 H 0.0 **** 0.06
7353 H 75.37327480117074 93.93247574025025 55.72623567122668 H 0.0 **** 0.06
7354 H 76.14493519349668 94.30996097622776 54.16580883103026 H 0.0 **** 0.06
7355 H 74.74138392079118 93.21597488948765 54.223988677427485 H 0.0 **** 0.06
7356 C 101.21621213912135 37.24439533858987 72.18284089178732 C 0.0 **** -0.24
7357 H 100.60709925653342 36.54212510774056 72.75083870292818 H 0.0 **** 0.06
7358 H 100.87942913379689 37.26183636129031 71.14660850845695 H 0.0 **** 0.06
7359 H 102.26045512083886 36.934406692684774 72.22118405481149 H 0.0 **** 0.06
7360 H 101.11834463240493 38.2413487158604 72.6138322501186 H 0.0 **** 0.06
7361 C 30.689821853211456 7.085586707078761 67.58081507482896 C 0.0 **** -0.24
7362 H 31.422674146082123 6.867791081012655 66.80373002999448 H 0.0 **** 0.06
7363 H 29.746969939451056 7.378960989994411 67.11873997880753 H 0.0 **** 0.06
7364 H 31.05690569190888 7.897222407584849 68.20873823572464 H 0.0 **** 0.06
7365 H 30.533347202348367 6.196567898992328 68.19144162876304 H 0.0 **** 0.06
7366 C 65.06646620770215 47.346530571282855 39.70129183715943 C 0.0 **** -0.24
7367 H 65.74026209573131 46.785323341037234 40.34900561481828 H 0.0 **** 0.06
7368 H 64.27316288900823 47.79180221410205 40.30085294117379 H 0.0 **** 0.06
7369 H 64.6303837924616 46.673853188690174 38.96228177224043 H 0.0 **** 0.06
7370 H 65.6235576119044 48.133325118339584 39.19236444062756 H 0.0 **** 0.06
7371 C 87.24914642836328 70.3791766248537 35.32981069500463 C 0.0 **** -0.24
7372 H 87.87429341513052 69.58199620730846 35.7321428965256 H 0.0 **** 0.06
7373 H 86.20287360634435 70.07591508408433 35.372074258704174 H 0.0 **** 0.06
7374 H 87.52987640672686 70.57316113124742 34.29480526760246 H 0.0 **** 0.06
7375 H 87.39045529378805 71.28344821160448 35.92084386357709 H 0.0 **** 0.06
7376 C 17.387057161193695 32.01243255152157 18.27166158314722 C 0.0 **** -0.24
7377 H 17.853511588595723 32.651518678781535 17.521442414179802 H 0.0 **** 0.06
7378 H 16.30990625267239 31.985609857898226 18.106998193992723 H 0.0 **** 0.06
7379 H 17.59450370942818 32.409364226826334 19.265691149113707 H 0.0 **** 0.06
7380 H 17.792847078515308 31.004424406253868 18.192140323028127 H 0.0 **** 0.06
7381 C 74.3268145981094 17.846835626819257 61.546699435203514 C 0.0 **** -0.24
7382 H 75.21754199234181 17.254320105332823 61.34111598479554 H 0.0 **** 0.06
7383 H 74.56147812498381 18.612540928009025 62.28585027735307 H 0.0 **** 0.06
7384 H 73.54044819343315 17.197144454516547 61.93317573315594 H 0.0 **** 0.06
7385 H 73.98650300255011 18.321312934731395 60.626158895587714 H 0.0 **** 0.06
7386 C 114.79939589443026 20.759804188170243 16.25027609301064 C 0.0 **** -0.24
7387 H 115.25326532100635 21.44622279374977 16.965074393847686 H 0.0 **** 0.06
7388 H 115.23384482770254 20.923077944705106 15.263269780530152 H 0.0 **** 0.06
7389 H 113.72450954663573 20.935891795345523 16.209397485203468 H 0.0 **** 0.06
7390 H 114.98783820330272 19.732834876726564 16.563632303073476 H 0.0 **** 0.06
7391 C 104.51128050802978 110.26245993512883 59.23938182987022 C 0.0 **** -0.24
7392 H 105.49648260467364 110.6443568358063 58.96973350656999 H 0.0 **** 0.06
7393 H 103.97959799354612 111.01232936425583 59.82540156525352 H 0.0 **** 0.06
7394 H 104.62462835903256 109.3521964655539 59.82861546805447 H 0.0 **** 0.06
7395 H 103.94763164208607 110.04108563326716 58.3329862469058 H 0.0 **** 0.06
7396 C 42.27356293051821 21.474060548802413 94.48308653283593 C 0.0 **** -0.24
7397 H 41.88111946445855 22.490493236101543 94.4914073190362 H 0.0 **** 0.06
7398 H 43.120594795615915 21.41724757500245 93.79967827024907 H 0.0 **** 0.06
7399 H 41.494176592280866 20.786875343729264 94.15358386685256 H 0.0 **** 0.06
7400 H 42.59746483885161 21.201345156815535 95.48802061076788 H 0.0 **** 0.06
7401 C 52.10117373150746 91.25005184321705 118.77986225476495 C 0.0 **** -0.24
7402 H 52.57923764237751 90.44870565960812 118.21692199942007 H 0.0 **** 0.06
7403 H 52.39309097651852 92.21331053929751 118.35879015957389 H 0.0 **** 0.06
7404 H 52.41442872380787 91.19817294468564 119.82214695903117 H 0.0 **** 0.06
7405 H 51.017796482991 91.13974019278695 118.7191602636632 H 0.0 **** 0.06
7406 C 25.730083491822683 54.53992589311997 29.3072516320279 C 0.0 **** -0.24
7407 H 25.99904315263592 55.534299331462705 29.66547616171468 H 0.0 **** 0.06
7408 H 24.727196958120942 54.56782711199395 28.880325720340124 H 0.0 **** 0.06
7409 H 25.75283184652369 53.83605186191096 30.139101630346886 H 0.0 **** 0.06
7410 H 26.441704924059678 54.2244546741079 28.54457516909997 H 0.0 **** 0.06
7411 C 99.08908491120877 107.17237102053383 51.79225726925603 C 0.0 **** -0.24
7412 H 100.1311037843825 106.85255913406178 51.80100928539605 H 0.0 **** 0.06
7413 H 99.02181916412758 108.20458915693013 52.13658361758473 H 0.0 **** 0.06
7414 H 98.50702871583383 106.5298511517704 52.451980165535815 H 0.0 **** 0.06
7415 H 98.69622671062814 107.10158528717693 50.77767685368252 H 0.0 **** 0.06
7416 C 30.668190593622136 58.10127503504996 86.30604075509083 C 0.0 **** -0.24
7417 H 29.678350907684433 57.71553935689503 86.55399249691882 H 0.0 **** 0.06
7418 H 30.576709302163422 58.870368859768895 85.53990345837417 H 0.0 **** 0.06
7419 H 31.29066979993545 57.287846446679644 85.93223842261452 H 0.0 **** 0.06
7420 H 31.12488230126545 58.52887510579985 87.19855317862263 H 0.0 **** 0.06
7421 C 118.26772449003161 3.4468382896628498 50.33210924288077 C 0.0 **** -0.24
7422 H 117.70501575591175 2.7505740975407775 50.95401006246721 H 0.0 **** 0.06
7423 H 117.66046150872265 3.7420303629767204 49.47627228650616 H 0.0 **** 0.06
7424 H 119.1806132714357 2.9637708639103835 49.9811895834547 H 0.0 **** 0.06
7425 H 118.52590807871506 4.329390122015042 50.91748269100369 H 0.0 **** 0.06
7426 C 30.43990691182023 45.820428913599955 37.61503864691565 C 0.0 **** -0.24
7427 H 29.64368864232779 46.51031854044665 37.332826981048754 H 0.0 **** 0.06
7428 H 30.192097029146623 44.818406614706184 37.264872768854815 H 0.0 **** 0.06
7429 H 30.543252760110533 45.81108693774839 38.7005726140419 H 0.0 **** 0.06
7430 H 31.37786307519218 46.143376857982936 37.163979454090395 H 0.0 **** 0.06
7431 C 102.32550716523562 77.78892825900536 64.27226064871033 C 0.0 **** -0.24
7432 H 101.96167916736036 77.61199049340266 65.28497623202597 H 0.0 **** 0.06
7433 H 103.08748096201356 77.04968160449522 64.02587909917091 H 0.0 **** 0.06
7434 H 102.75552556889426 78.78921494849868 64.21085748659536 H 0.0 **** 0.06
7435 H 101.49603826991452 77.7064061763216 63.56952096709813 H 0.0 **** 0.06
7436 C 0.15435380413215682 53.52103798406596 90.42030144340094 C 0.0 **** -0.24
7437 H -0.8340682686714871 53.71345723265058 90.83817850494438 H 0.0 **** 0.06
7438 H 0.8876976542778721 54.15445683405666 90.91887430367365 H 0.0 **** 0.06
7439 H 0.14662608617403805 53.74346213489605 89.35290114641936 H 0.0 **** 0.06
7440 H 0.4144847826717637 52.47369459609409 90.57127902190268 H 0.0 **** 0.06
7441 C 104.787259026393 45.97467485561148 92.2072702672161 C 0.0 **** -0.24
7442 H 105.26318286804656 45.53637576079723 93.0846333537686 H 0.0 **** 0.06
7443 H 103.81473977076809 45.5089082420111 92.05093001654654 H 0.0 **** 0.06
7444 H 105.41534727189634 45.8092461577742 91.3320925406031 H 0.0 **** 0.06
7445 H 104.65677089798385 47.046540506321406 92.36296408561842 H 0.0 **** 0.06
7446 C 31.99011358024974 95.7645950205175 12.125339980962607 C 0.0 **** -0.24
7447 H 31.795014608983585 96.36588431870479 13.012287011083913 H 0.0 **** 0.06
7448 H 33.009450309506754 95.94407929856169 11.78161527712578 H 0.0 **** 0.06
7449 H 31.2873406944952 96.03944010213331 11.338219867376239 H 0.0 **** 0.06
7450 H 31.869191707929048 94.7084312323986 12.367685943611505 H 0.0 **** 0.06
7451 C 22.473330898690904 32.610015113102634 13.421898704963823 C 0.0 **** -0.24
7452 H 21.56750261384269 32.44774923473972 14.006063469713553 H 0.0 **** 0.06
7453 H 23.316015751257055 32.12565562618812 13.914777665267522 H 0.0 **** 0.06
7454 H 22.665400592378433 33.67979657671515 13.340250585027661 H 0.0 **** 0.06
7455 H 22.342288586630445 32.18817642513753 12.425166227373467 H 0.0 **** 0.06
7456 C 37.54565792894269 52.07035542701453 48.73684934495002 C 0.0 **** -0.24
7457 H 36.724662620994735 52.24382184241264 49.432153339754535 H 0.0 **** 0.06
7458 H 38.32035707174279 52.82206275955579 48.89400531854546 H 0.0 **** 0.06
7459 H 37.175179832251246 52.14014607761524 47.71324057231314 H 0.0 **** 0.06
7460 H 37.961620170991694 51.07759916057168 48.906428039328254 H 0.0 **** 0.06
7461 C 96.26476447908462 111.35521490710201 55.92815230090213 C 0.0 **** -0.24
7462 H 96.84626345829977 111.94834070871966 55.221577214027434 H 0.0 **** 0.06
7463 H 95.27987738629238 111.15147115573765 55.50573239631322 H 0.0 **** 0.06
7464 H 96.15285093832972 111.90907186734998 56.86020240158237 H 0.0 **** 0.06
7465 H 96.77904121894093 110.41480287895604 56.12287041354233 H 0.0 **** 0.06
7466 C 35.880016795196426 105.14788895522443 9.554376529674755 C 0.0 **** -0.24
7467 H 36.138607888126614 105.69240620299485 8.645994887667655 H 0.0 **** 0.06
7468 H 35.05503235314336 105.65312827794531 10.058113122579897 H 0.0 **** 0.06
7469 H 36.74540825878357 105.11625790407444 10.21680516463789 H 0.0 **** 0.06
7470 H 35.58168268544404 104.13279706863935 9.29599565357708 H 0.0 **** 0.06
7471 C 1.7382008362368708 25.386687745662385 94.43943160292889 C 0.0 **** -0.24
7472 H 2.769828101708441 25.07617125905034 94.6035907874298 H 0.0 **** 0.06
7473 H 1.2926586903960526 25.684803367938514 95.38835827345571 H 0.0 **** 0.06
7474 H 1.1724640914679298 24.55603741810853 94.01660234620388 H 0.0 **** 0.06
7475 H 1.7180920001630682 26.22964186962892 93.74778456724744 H 0.0 **** 0.06
7476 C 22.7813112080608 79.46493051761996 20.590686621685705 C 0.0 **** -0.24
7477 H 23.022134002437383 79.70186373273947 21.627170399550067 H 0.0 **** 0.06
7478 H 23.64059481814928 79.68808363849342 19.958247744191738 H 0.0 **** 0.06
7479 H 21.92847367611583 80.06367987288701 20.270675792299187 H 0.0 **** 0.06
7480 H 22.533829844345377 78.40623445938303 20.508636381426328 H 0.0 **** 0.06
7481 C 101.22548249857721 30.438787034406722 52.060335148052616 C 0.0 **** -0.24
7482 H 100.15463588419055 30.406729085194662 52.25988552725234 H 0.0 **** 0.06
7483 H 101.54519140291765 31.47573210076642 51.962021067769825 H 0.0 **** 0.06
7484 H 101.43798033861015 29.90253918574976 51.135067335437824 H 0.0 **** 0.06
7485 H 101.76262374407287 29.968217016918757 52.884203308715215 H 0.0 **** 0.06
7486 C 96.502180345926 16.134840127293188 63.98299073581177 C 0.0 **** -0.24
7487 H 96.23323927043873 15.088816814811139 63.832586094234046 H 0.0 **** 0.06
7488 H 95.6352624247155 16.681217359688276 64.35644741532644 H 0.0 **** 0.06
7489 H 96.8241498796366 16.566644301025633 63.03612577162755 H 0.0 **** 0.06
7490 H 97.31313404969058 16.199989312824954 64.70786741383921 H 0.0 **** 0.06
7491 C 100.05249946639893 117.15435678371156 57.179868179034735 C 0.0 **** -0.24
7492 H 99.71633078037348 116.15818302875326 56.89166676862575 H 0.0 **** 0.06
7493 H 99.25115162192341 117.87197616253158 57.00657486204356 H 0.0 **** 0.06
7494 H 100.92318332555882 117.4303866381365 56.58504408246642 H 0.0 **** 0.06
7495 H 100.3194504196822 117.15528477556163 58.23684827257939 H 0.0 **** 0.06
7496 C 102.65196774945139 99.22168561863691 60.098479256514956 C 0.0 **** -0.24
7497 H 101.66742927578923 99.149494282316 59.635680153586456 H 0.0 **** 0.06
7498 H 102.55531559959164 99.65695739659603 61.0931638377803 H 0.0 **** 0.06
7499 H 103.295538536186 99.85286723384911 59.48600643545783 H 0.0 **** 0.06
7500 H 103.08903307389835 98.2258229989931 60.17760680212553 H 0.0 **** 0.06
7501 C 103.65293042173133 39.45923963063572 32.256903505824255 C 0.0 **** -0.24
7502 H 102.97364289951932 39.29423363498108 33.09262773887485 H 0.0 **** 0.06
7503 H 103.44614188893556 38.73168732891722 31.472234975555295 H 0.0 **** 0.06
7504 H 104.68224869968438 39.34457107745175 32.596660144411146 H 0.0 **** 0.06
7505 H 103.50898666222912 40.46678817301935 31.865455224689356 H 0.0 **** 0.06
7506 C 23.253419648831205 25.767135581057545 113.93542684159485 C 0.0 **** -0.24
7507 H 24.05760451942836 26.366440478997987 114.36373277670697 H 0.0 **** 0.06
7508 H 23.412900006026923 25.65875282731855 112.86197314233328 H 0.0 **** 0.06
7509 H 22.298567962618936 26.260644473247595 114.11349069336003 H 0.0 **** 0.06
7510 H 23.246745903027957 24.782840352251355 114.40314567375546 H 0.0 **** 0.06
7511 C 27.16182194864379 93.83307413566584 9.129480674807922 C 0.0 **** -0.24
7512 H 26.662955378034326 94.58150001094782 9.744473659978695 H 0.0 **** 0.06
7513 H 28.23622139715394 94.01804963608211 9.131822691557176 H 0.0 **** 0.06
7514 H 26.78474366430163 93.89211794274416 8.10848882111003 H 0.0 **** 0.06
7515 H 26.962061065449575 92.84034411416175 9.533598602937332 H 0.0 **** 0.06
7516 C 19.988563206975755 118.28438193062757 54.79136338604922 C 0.0 **** -0.24
7517 H 19.95259176982381 119.32125928067526 55.128483691632105 H 0.0 **** 0.06
7518 H 19.549309357145404 118.21111978301761 53.79621449598226 H 0.0 **** 0.06
7519 H 19.425524324491732 117.65894491681965 55.48443362265005 H 0.0 **** 0.06
7520 H 21.024964085970822 117.94878054520078 54.757696119821865 H 0.0 **** 0.06
7521 C 68.57576119216762 76.94412964069977 53.61866966392077 C 0.0 **** -0.24
7522 H 67.516297544405 77.16737302035185 53.74300277155564 H 0.0 **** 0.06
7523 H 68.99161016963572 77.57824647349722 52.83603245071228 H 0.0 **** 0.06
7524 H 68.69664584321728 75.89662308673593 53.339890938957126 H 0.0 **** 0.06
7525 H 69.09927687330708 77.13311053561188 54.55590929599293 H 0.0 **** 0.06
7526 C 108.57169241284734 54.05183410538751 63.29779203222981 C 0.0 **** -0.24
7527 H 109.59451098591336 54.0912803192881 62.92203708675203 H 0.0 **** 0.06
7528 H 108.08926681740655 53.142281378642 62.94120558125422 H 0.0 **** 0.06
7529 H 108.01991437139628 54.92129466092852 62.94196785957823 H 0.0 **** 0.06
7530 H 108.58622024796304 54.05187602300376 64.38789640109076 H 0.0 **** 0.06
7531 C 24.513672240019616 13.698240256293474 22.64998693898761 C 0.0 **** -0.24
7532 H 24.295979685416796 13.512364009195295 23.70170483776991 H 0.0 **** 0.06
7533 H 24.33298117261421 12.789040374357029 22.075696123553 H 0.0 **** 0.06
7534 H 25.557498742354653 13.99464822765637 22.54189357155127 H 0.0 **** 0.06
7535 H 23.86964095789739 14.495540655324817 22.28102317042817 H 0.0 **** 0.06
7536 C 26.91844437751047 102.1121527951704 74.57517660242189 C 0.0 **** -0.24
7537 H 27.707836814743587 101.64969687501153 73.98347176580668 H 0.0 **** 0.06
7538 H 26.13305069263521 101.38035270453784 74.76685084570846 H 0.0 **** 0.06
7539 H 26.501557221624296 102.95776185708877 74.02953762540986 H 0.0 **** 0.06
7540 H 27.331171029491486 102.45807735685685 75.52244711936578 H 0.0 **** 0.06
7541 C 74.35409096152188 10.987460035936664 96.10423671395625 C 0.0 **** -0.24
7542 H 75.01515165264976 11.816981326153126 95.85163463854963 H 0.0 **** 0.06
7543 H 73.69209849512168 10.780993028454446 95.26400707567544 H 0.0 **** 0.06
7544 H 73.76070540795814 11.25094643742176 96.97992563446778 H 0.0 **** 0.06
7545 H 74.95125520979701 10.102401208829548 96.3230226475601 H 0.0 **** 0.06
7546 C 47.286686075034964 65.85133856924926 30.88191467511362 C 0.0 **** -0.24
7547 H 46.60058725368327 65.00709116758102 30.806162665313423 H 0.0 **** 0.06
7548 H 47.61169084004155 66.14399183997776 29.88240246224308 H 0.0 **** 0.06
7549 H 48.15365530335691 65.5635108897732 31.47663743201258 H 0.0 **** 0.06
7550 H 46.779478256391855 66.68976920642882 31.359103164849813 H 0.0 **** 0.06
7551 C 83.2075614253009 80.1599726667647 109.85925433516715 C 0.0 **** -0.24
7552 H 83.82987951066096 79.33886026524715 110.21262962156874 H 0.0 **** 0.06
7553 H 83.27714319096714 80.22760468672072 108.7734067956267 H 0.0 **** 0.06
7554 H 83.5496076120188 81.09381545108761 110.30497353752861 H 0.0 **** 0.06
7555 H 82.1713376773877 79.9791587325044 110.14678745455736 H 0.0 **** 0.06
7556 C 39.67249271774676 6.399954526483867 105.93065124839961 C 0.0 **** -0.24
7557 H 38.66031598132355 6.237339797608911 105.56018494955651 H 0.0 **** 0.06
7558 H 40.3133606473902 6.715672192248206 105.10757822244847 H 0.0 **** 0.06
7559 H 40.05669164606928 5.472868764661513 106.35569327306084 H 0.0 **** 0.06
7560 H 39.6582974837587 7.172917167376596 106.69802777189923 H 0.0 **** 0.06
7561 C 85.15090598014064 56.94762233138767 78.34220726966026 C 0.0 **** -0.24
7562 H 85.99645236674428 56.77463837185213 79.00679160278847 H 0.0 **** 0.06
7563 H 85.39367974107245 56.582558334405384 77.34286553039703 H 0.0 **** 0.06
7564 H 84.93593447820558 58.015351899328174 78.2973028994902 H 0.0 **** 0.06
7565 H 84.27736328449157 56.41653729140189 78.7201390096539 H 0.0 **** 0.06
7566 C 80.83626343728457 57.12260075457306 37.10421353817708 C 0.0 **** -0.24
7567 H 80.6614722548745 56.96225966218748 38.16856000618577 H 0.0 **** 0.06
7568 H 80.75547035756941 56.1727587629652 36.57547139896508 H 0.0 **** 0.06
7569 H 81.83384879069439 57.535777177353054 36.958830552244024 H 0.0 **** 0.06
7570 H 80.09384938150677 57.819190903429444 36.7159043176992 H 0.0 **** 0.06
7571 C 30.201093092651888 44.041557735391976 14.719187421143452 C 0.0 **** -0.24
7572 H 29.705689569961265 45.001142038451164 14.866808149149303 H 0.0 **** 0.06
7573 H 31.06211638307687 43.97056027460967 15.383916563531354 H 0.0 **** 0.06
7574 H 30.531851387704933 43.9600875382712 13.684307204495429 H 0.0 **** 0.06
7575 H 29.502071167162512 43.23493630366693 14.942592537159697 H 0.0 **** 0.06
7576 C 18.074757627778666 37.51830047527409 57.903066057637766 C 0.0 **** -0.24
7577 H 18.455702003412767 37.758797123779374 56.91096462006842 H 0.0 **** 0.06
7578 H 18.175035832378143 38.38972207779594 58.55153760639701 H 0.0 **** 0.06
7579 H 18.64462336092933 36.68760137905497 58.319392406649804 H 0.0 **** 0.06
7580 H 17.02403554641603 37.23844059968789 57.83050506411248 H 0.0 **** 0.06
7581 C 63.97165505292975 11.476432497486286 27.26856687444115 C 0.0 **** -0.24
7582 H 64.65580814120153 11.672734130674911 26.443078663969402 H 0.0 **** 0.06
7583 H 63.14404122825135 10.860747158322837 26.916269427708528 H 0.0 **** 0.06
7584 H 63.585417221338844 12.421313373829676 27.651801893562947 H 0.0 **** 0.06
7585 H 64.50316997099281 10.952577470063346 28.06318526453208 H 0.0 **** 0.06
7586 C 42.37116553726926 55.33317567173725 103.55897909211151 C 0.0 **** -0.24
7587 H 41.412001831502835 54.81699055865093 103.59710351570675 H 0.0 **** 0.06
7588 H 43.042669573794235 54.801550860202866 102.88341039445234 H 0.0 **** 0.06
7589 H 42.80760005198789 55.36279950562732 104.55732467795661 H 0.0 **** 0.06
7590 H 42.222484291957045 56.35047003667165 103.19659580874196 H 0.0 **** 0.06
7591 C 49.99656737174993 57.04803600153838 90.48967009239396 C 0.0 **** -0.24
7592 H 50.58762315722967 56.8931050110362 89.58638050153186 H 0.0 **** 0.06
7593 H 49.48917946115114 56.120030867205685 90.75429545181947 H 0.0 **** 0.06
7594 H 49.25780505119582 57.82927163031627 90.31065976395854 H 0.0 **** 0.06
7595 H 50.65275678826774 57.348400880398174 91.30592427965905 H 0.0 **** 0.06
7596 C 97.26083182443355 4.100168426639584 101.06722322351698 C 0.0 **** -0.24
7597 H 98.21911933665399 4.085224781692602 100.54814202210616 H 0.0 **** 0.06
7598 H 96.93273804024864 5.132202354316419 101.19304864859197 H 0.0 **** 0.06
7599 H 97.36944309794299 3.631704572318199 102.0440136912951 H 0.0 **** 0.06
7600 H 96.52245529563746 3.553178929519902 100.48121115562276 H 0.0 **** 0.06
7601 C 7.167362961304491 1.6201925734372935 88.3310629612659 C 0.0 **** -0.24
7602 H 6.883693215420351 2.62661807794467 88.64043943951486 H 0.0 **** 0.06
7603 H 6.755622237439951 0.8943439799332964 89.0320565032298 H 0.0 **** 0.06
7604 H 8.253962115317535 1.5380423919817758 88.3187680094018 H 0.0 **** 0.06
7605 H 6.776853984017777 1.4245043487632643 87.33279026208473 H 0.0 **** 0.06
7606 C 50.587190299867956 10.31327701025063 69.11190442089085 C 0.0 **** -0.24
7607 H 49.92560620386931 9.453044885192753 69.20341739812685 H 0.0 **** 0.06
7608 H 50.842896644251084 10.464944783304702 68.06198305489758 H 0.0 **** 0.06
7609 H 51.49738730509556 10.135233969736305 69.68497394878335 H 0.0 **** 0.06
7610 H 50.08502259156799 11.201114254694545 69.49587990892462 H 0.0 **** 0.06
7611 C 5.754264332549781 19.456876619875743 26.554247679572228 C 0.0 **** -0.24
7612 H 5.330252705489528 20.176364604686142 27.254503869680462 H 0.0 **** 0.06
7613 H 6.786231656012063 19.241388923353824 26.835230234818795 H 0.0 **** 0.06
7614 H 5.731289518598317 19.874345562619027 25.547403880980426 H 0.0 **** 0.06
7615 H 5.170835902390849 18.53725426465121 26.580276162832945 H 0.0 **** 0.06
7616 C 96.01658854919441 62.72412877814659 35.69660451190404 C 0.0 **** -0.24
7617 H 95.65996871198504 62.67942347726034 34.66772391745812 H 0.0 **** 0.06
7618 H 97.01527883692233 63.15995667928007 35.71600285497368 H 0.0 **** 0.06
7619 H 96.05056379754203 61.71722166770164 36.113095021758596 H 0.0 **** 0.06
7620 H 95.33953612799374 63.33912751704466 36.290203864092575 H 0.0 **** 0.06
7621 C 25.966933546696886 2.642399181048873 91.94107180319264 C 0.0 **** -0.24
7622 H 26.917421516355624 2.8782016371274324 91.46139123212697 H 0.0 **** 0.06
7623 H 25.68961048124264 1.6125763530843784 91.7101268177498 H 0.0 **** 0.06
7624 H 25.19640229423083 3.317939235827211 91.57245049777367 H 0.0 **** 0.06
7625 H 26.066276035678463 2.757703728164458 93.02041952456412 H 0.0 **** 0.06
7626 C 32.772067373159935 93.80527545038109 79.33937311887289 C 0.0 **** -0.24
7627 H 32.606397184226566 94.08485371112033 78.29885019008796 H 0.0 **** 0.06
7628 H 33.28403767543049 94.61748961186896 79.85619821713277 H 0.0 **** 0.06
7629 H 33.384051419893524 92.90460899342912 79.38034857691443 H 0.0 **** 0.06
7630 H 31.812832266668288 93.6143964159159 79.8210782189268 H 0.0 **** 0.06
7631 C 41.55611184525691 102.70664270667109 92.32915777192937 C 0.0 **** -0.24
7632 H 41.375804028647764 101.84216416281507 92.96743549891391 H 0.0 **** 0.06
7633 H 40.99370960857735 103.5613650519796 92.70577965162903 H 0.0 **** 0.06
7634 H 41.23651884024869 102.48032737161341 91.31185287212907 H 0.0 **** 0.06
7635 H 42.62126618260223 102.9430292795584 92.33068472282145 H 0.0 **** 0.06
7636 C 43.78805052081677 110.51114507344064 42.657582988647505 C 0.0 **** -0.24
7637 H 43.41322036742346 111.44957988415894 42.24999130117074 H 0.0 **** 0.06
7638 H 43.34927120407491 110.34054151815862 43.64014374820249 H 0.0 **** 0.06
7639 H 44.87332418193813 110.56283950014159 42.74840354388439 H 0.0 **** 0.06
7640 H 43.51818436284191 109.69245070693282 41.990755920054 H 0.0 **** 0.06
7641 C 104.3859217482019 12.025861025140447 99.42745910031158 C 0.0 **** -0.24
7642 H 105.04623775585026 11.344465048510141 98.89172239524515 H 0.0 **** 0.06
7643 H 103.42160571876076 12.071390142007552 98.92043117217071 H 0.0 **** 0.06
7644 H 104.83136309503541 13.02042861099725 99.4512896633284 H 0.0 **** 0.06
7645 H 104.24439370189347 11.667567960495902 100.44774461738672 H 0.0 **** 0.06
7646 C 57.241427658094814 112.37498948630085 105.9010696673295 C 0.0 **** -0.24
7647 H 57.55541911602089 112.51046916548796 106.93560006184117 H 0.0 **** 0.06
7648 H 58.12047558116061 112.33861825218733 105.25635380321688 H 0.0 **** 0.06
7649 H 56.605929312786294 113.20884058683666 105.6019696921405 H 0.0 **** 0.06
7650 H 56.684860448141954 111.44283182182792 105.80971576307053 H 0.0 **** 0.06
7651 C 44.69133268815689 23.58525940015835 54.15397113249449 C 0.0 **** -0.24
7652 H 43.957602290104504 22.79553310616609 54.31817437478618 H 0.0 **** 0.06
7653 H 45.1476421622352 23.859997587237956 55.10432953336055 H 0.0 **** 0.06
7654 H 44.1970431123771 24.455007768267933 53.72216317713183 H 0.0 **** 0.06
7655 H 45.46070453711917 23.22838299838662 53.4694700401096 H 0.0 **** 0.06
7656 C 83.17203471641395 1.7418900147452714 80.03424425546132 C 0.0 **** -0.24
7657 H 82.53358400796077 2.599998237455832 79.8225615216246 H 0.0 **** 0.06
7658 H 83.3630312370615 1.1950855538138576 79.11007767681122 H 0.0 **** 0.06
7659 H 82.67404890183909 1.0857018915063907 80.74813419866831 H 0.0 **** 0.06
7660 H 84.116188592654 2.087027459565469 80.4546929750145 H 0.0 **** 0.06
7661 C 77.20553721526306 85.98486501722908 85.14812056040202 C 0.0 **** -0.24
7662 H 76.27652288834165 86.51129902525844 85.36668445738547 H 0.0 **** 0.06
7663 H 76.98570792627731 85.08681575746783 84.56914103303521 H 0.0 **** 0.06
7664 H 77.69302798153919 85.70564114380505 86.08244083619849 H 0.0 **** 0.06
7665 H 77.8648102751643 86.6352030241327 84.57356503253513 H 0.0 **** 0.06
7666 C 4.133082559892998 20.050308717221725 16.39079288932234 C 0.0 **** -0.24
7667 H 4.367244074470321 20.950108192044745 16.959807711604384 H 0.0 **** 0.06
7668 H 3.324124564905617 20.263368898363264 15.691416067026026 H 0.0 **** 0.06
7669 H 3.8230862859943215 19.259529050924055 17.074568035159174 H 0.0 **** 0.06
7670 H 5.015854937132588 19.72859700185593 15.838714959545257 H 0.0 **** 0.06
7671 C 27.463234421926842 69.58325471488237 13.604987314314997 C 0.0 **** -0.24
7672 H 27.66472857817618 69.42379720589884 14.665191111513678 H 0.0 **** 0.06
7673 H 28.397201483829633 69.80070534741492 13.087470862470951 H 0.0 **** 0.06
7674 H 26.77790739776671 70.42263116250336 13.48848151780669 H 0.0 **** 0.06
7675 H 27.012406019716877 68.68465729341219 13.182807204290043 H 0.0 **** 0.06
7676 C 51.041838608409535 40.52394341021102 110.49572154310734 C 0.0 **** -0.24
7677 H 51.55644003028601 41.32991308323858 111.01782667348445 H 0.0 **** 0.06
7678 H 50.86471265923544 39.69911581105541 111.18587398602162 H 0.0 **** 0.06
7679 H 51.65725426081843 40.17796325874872 109.66550479120806 H 0.0 **** 0.06
7680 H 50.08824219910477 40.88948959224612 110.11371566252346 H 0.0 **** 0.06
7681 C 18.572762224774785 16.1889849763254 68.45288522261762 C 0.0 **** -0.24
7682 H 17.585648322797834 15.73200628627285 68.38462705309291 H 0.0 **** 0.06
7683 H 18.599049878083346 17.089765924067706 67.83945777820276 H 0.0 **** 0.06
7684 H 19.323980133506407 15.48419170693856 68.09843693603025 H 0.0 **** 0.06
7685 H 18.78015098099035 16.449960871943944 69.49103747559946 H 0.0 **** 0.06
7686 C 50.43925410417103 112.9962894463395 58.14984073833125 C 0.0 **** -0.24
7687 H 50.02862714029499 113.8342147662141 58.71372216097646 H 0.0 **** 0.06
7688 H 49.646952984895506 112.27590930908552 57.94189346011464 H 0.0 **** 0.06
7689 H 51.224133082100025 112.51589956627497 58.734095071544516 H 0.0 **** 0.06
7690 H 50.856032767023834 113.36009169475608 57.21122368205576 H 0.0 **** 0.06
7691 C 91.28788330956559 80.62658082115829 42.87568118121219 C 0.0 **** -0.24
7692 H 91.59868456361397 81.07595828755541 43.81917526093695 H 0.0 **** 0.06
7693 H 91.45752419580191 79.55003990005844 42.912562630407066 H 0.0 **** 0.06
7694 H 91.86759029122874 81.05849663689597 42.05973747681801 H 0.0 **** 0.06
7695 H 90.22902268984296 80.82196268726636 42.71181668569761 H 0.0 **** 0.06
7696 C 51.414013952398115 21.26160604124607 107.04844166491085 C 0.0 **** -0.24
7697 H 52.07140221121056 20.459175514796186 107.38297042075382 H 0.0 **** 0.06
7698 H 51.58397486510166 21.45228234703717 105.98813817774561 H 0.0 **** 0.06
7699 H 51.62651950066888 22.16623792422493 107.61852248489518 H 0.0 **** 0.06
7700 H 50.37595065635054 20.970066694568146 107.20413333555675 H 0.0 **** 0.06
7701 C 99.10060885339848 110.03518619548157 13.15522427212926 C 0.0 **** -0.24
7702 H 99.30044658521109 109.77029177840744 12.117444748957212 H 0.0 **** 0.06
7703 H 99.18607368866418 109.14630134273074 13.780541047502766 H 0.0 **** 0.06
7704 H 98.09249611212013 110.44178907237487 13.239309971627932 H 0.0 **** 0.06
7705 H 99.82227102990203 110.78292980641577 13.485434530132665 H 0.0 **** 0.06
7706 C 37.49712940994252 64.29977164301818 105.29834831238398 C 0.0 **** -0.24
7707 H 37.68708956917111 63.27740240701917 105.62258704528386 H 0.0 **** 0.06
7708 H 38.43935072299479 64.84584853312663 105.24836212805334 H 0.0 **** 0.06
7709 H 36.82961587936762 64.78817909312698 106.00856126831033 H 0.0 **** 0.06
7710 H 37.03104401881902 64.28746526821487 104.31216392874668 H 0.0 **** 0.06
7711 C 64.20616260157254 15.832722437075944 24.47203227604757 C 0.0 **** -0.24
7712 H 64.02041970978897 15.17766804467226 23.62126565160554 H 0.0 **** 0.06
7713 H 63.2576063464683 16.209884129876144 24.854088096885704 H 0.0 **** 0.06
7714 H 64.82959559049698 16.670139746915794 24.15585158029228 H 0.0 **** 0.06
7715 H 64.71800126220421 15.27421446848544 25.25591340220916 H 0.0 **** 0.06
7716 C 73.32420063995681 92.94723490698681 27.24927851384058 C 0.0 **** -0.24
7717 H 73.937220294714 93.51647709396934 27.947571980858413 H 0.0 **** 0.06
7718 H 73.68451518564751 93.10969625383302 26.233198625465263 H 0.0 **** 0.06
7719 H 72.28735095974042 93.27747039293035 27.323990808095857 H 0.0 **** 0.06
7720 H 73.38587701840225 91.88691291864632 27.492409798816936 H 0.0 **** 0.06
7721 C 115.04783182436148 50.93576823295575 83.79294692466584 C 0.0 **** -0.24
7722 H 115.58739077734778 51.18045834333981 84.70736335050702 H 0.0 **** 0.06
7723 H 114.38525721078453 50.089594412893916 83.9772330285752 H 0.0 **** 0.06
7724 H 115.7603288630933 50.676349686645324 83.0098495092256 H 0.0 **** 0.06
7725 H 114.45835044622021 51.79667048894407 83.47734181035548 H 0.0 **** 0.06
7726 C 10.316145057959147 63.582057659287386 24.968305054334337 C 0.0 **** -0.24
7727 H 9.384035553308507 63.09037971050856 25.24573649184572 H 0.0 **** 0.06
7728 H 10.715427057585543 63.12048170559876 24.064786855734837 H 0.0 **** 0.06
7729 H 11.037097056656052 63.47844185865159 25.778647263291475 H 0.0 **** 0.06
7730 H 10.12712538401027 64.63999342957732 24.78380006660086 H 0.0 **** 0.06
7731 C 42.735719640381205 102.81973491812818 30.346518062895896 C 0.0 **** -0.24
7732 H 43.25984300294746 103.22219253855471 31.212276703223438 H 0.0 **** 0.06
7733 H 43.46130113702745 102.42699534292979 29.63383179378505 H 0.0 **** 0.06
7734 H 42.15346543253787 103.61051352731778 29.873798504319637 H 0.0 **** 0.06
7735 H 42.06893012482155 102.01811253039489 30.66502691830965 H 0.0 **** 0.06
7736 C 88.82393686219959 4.892033979474945 63.593838009606856 C 0.0 **** -0.24
7737 H 89.3427895214688 5.502705295636474 62.85500174547741 H 0.0 **** 0.06
7738 H 88.08300718001937 4.268815920697932 63.09365604800797 H 0.0 **** 0.06
7739 H 88.32704283186715 5.54026226718355 64.31607759299453 H 0.0 **** 0.06
7740 H 89.54478053493924 4.2575550616195414 64.10959325793729 H 0.0 **** 0.06
7741 C 10.150335467916477 82.88964846800596 17.30573759755452 C 0.0 **** -0.24
7742 H 10.62881249293332 82.61874525368054 18.247069512274333 H 0.0 **** 0.06
7743 H 9.25285468988676 82.28482353949357 17.167080577699977 H 0.0 **** 0.06
7744 H 10.840911881191147 82.70874838827177 16.48159623202173 H 0.0 **** 0.06
7745 H 9.877215760522631 83.94502137082469 17.327027853235354 H 0.0 **** 0.06
7746 C 14.435832226723846 19.761272649495567 1.3455191719891104 C 0.0 **** -0.24
7747 H 15.501412888256993 19.73096091934454 1.115698184719065 H 0.0 **** 0.06
7748 H 14.25695114735754 20.476747410274015 2.1480208755241392 H 0.0 **** 0.06
7749 H 14.103644654727248 18.772288773385355 1.658603478241389 H 0.0 **** 0.06
7750 H 13.88240740643539 20.065785912937315 0.4570450716659593 H 0.0 **** 0.06
7751 C 14.683059389578691 95.46267886031777 118.74060436911674 C 0.0 **** -0.24
7752 H 14.977294855196394 95.15013802507974 119.74260152241084 H 0.0 **** 0.06
7753 H 15.563166829557936 95.49456857468678 118.09762337112397 H 0.0 **** 0.06
7754 H 14.229815427682848 96.45242039301178 118.78781801783248 H 0.0 **** 0.06
7755 H 13.963566301680753 94.75170612412381 118.33574516736769 H 0.0 **** 0.06
7756 C 62.34671170008725 109.5747347398 41.66776733668772 C 0.0 **** -0.24
7757 H 61.74037089895604 108.73508070729883 41.32507852013257 H 0.0 **** 0.06
7758 H 62.94714460133007 109.95023953992973 40.83940085819377 H 0.0 **** 0.06
7759 H 63.00215549761695 109.24422138280141 42.47249077995968 H 0.0 **** 0.06
7760 H 61.69349427708689 110.36812102907469 42.03242035459932 H 0.0 **** 0.06
7761 C 116.2280411517032 41.61317977735368 0.618394278323251 C 0.0 **** -0.24
7762 H 115.46717045271505 41.537014324755944 1.3948298144349192 H 0.0 **** 0.06
7763 H 115.95602713802185 42.40375794813441 -0.08130575008756225 H 0.0 **** 0.06
7764 H 116.30031804345678 40.665151420908 0.08530060972081444 H 0.0 **** 0.06
7765 H 117.18960701528248 41.84707224485035 1.0748271278362544 H 0.0 **** 0.06
7766 C 86.55566414494379 100.88644099085886 32.37664804798294 C 0.0 **** -0.24
7767 H 86.18976902485315 100.54391778471663 33.34503084118501 H 0.0 **** 0.06
7768 H 86.25837983946721 100.1768793526083 31.60507573224129 H 0.0 **** 0.06
7769 H 87.64396404134231 100.95896181099138 32.4049989456029 H 0.0 **** 0.06
7770 H 86.13225886333558 101.86576291647214 32.154803348043174 H 0.0 **** 0.06
7771 C 44.34337831893171 32.10602263932955 83.53970428341344 C 0.0 **** -0.24
7772 H 43.9148406753273 31.52201531754409 82.72465179489481 H 0.0 **** 0.06
7773 H 44.41272143828101 31.485135408774653 84.4331617114189 H 0.0 **** 0.06
7774 H 43.707685207285024 32.966972316628386 83.7427865356726 H 0.0 **** 0.06
7775 H 45.338936389409184 32.44772800018936 83.25633676703208 H 0.0 **** 0.06
7776 C 105.25286318208899 62.28356161598839 32.54187912922279 C 0.0 **** -0.24
7777 H 104.53946488541948 62.63030708568047 33.289107330407404 H 0.0 **** 0.06
7778 H 106.05880210044612 63.01125316285123 32.443766558004796 H 0.0 **** 0.06
7779 H 104.74678505492415 62.169031442113294 31.582344114083952 H 0.0 **** 0.06
7780 H 105.66492590295118 61.323252919225155 32.85148383696847 H 0.0 **** 0.06
7781 C 22.28449054112326 18.407147983213406 18.628098776196627 C 0.0 **** -0.24
7782 H 21.3201891283814 18.36821134655031 19.132655183441504 H 0.0 **** 0.06
7783 H 23.074014702180023 18.144262622995257 19.33260320882806 H 0.0 **** 0.06
7784 H 22.456423547780332 19.415632612897753 18.2501272932813 H 0.0 **** 0.06
7785 H 22.28847379496557 17.702013254364203 17.796402457407694 H 0.0 **** 0.06
7786 C 0.978843380141285 76.56909200435709 109.18041183510238 C 0.0 **** -0.24
7787 H 0.08820924050610301 76.625341090332 109.80600708681273 H 0.0 **** 0.06
7788 H 1.5568682544429464 77.48802047268322 109.2874884225102 H 0.0 **** 0.06
7789 H 0.6822142396479194 76.44532150830736 108.13834482598648 H 0.0 **** 0.06
7790 H 1.5873941631500657 75.7188040704693 109.4886778854455 H 0.0 **** 0.06
7791 C 62.786436310952865 79.50216356529086 79.69859743658026 C 0.0 **** -0.24
7792 H 62.824806051042856 78.69622568503996 78.96683834342844 H 0.0 **** 0.06
7793 H 63.26744892946556 80.38977424659788 79.28756250769433 H 0.0 **** 0.06
7794 H 63.30590122704871 79.19474208868894 80.60558792185051 H 0.0 **** 0.06
7795 H 61.74630856416988 79.72831136904688 79.9348495321841 H 0.0 **** 0.06
7796 C 47.771787152070246 50.93704459099041 16.3161390032271 C 0.0 **** -0.24
7797 H 47.22592812812878 51.876642183650894 16.39420172564634 H 0.0 **** 0.06
7798 H 48.67814826518767 50.99248167644801 16.920981929831463 H 0.0 **** 0.06
7799 H 48.03995743421967 50.758142783826344 15.275343942655386 H 0.0 **** 0.06
7800 H 47.144665991075016 50.121563404687834 16.675109750920846 H 0.0 **** 0.06
7801 C 15.928132627671893 49.47163526402517 98.14907281950045 C 0.0 **** -0.24
7802 H 15.60359203199036 48.43122581947762 98.12884502535857 H 0.0 **** 0.06
7803 H 16.80671483625165 49.59032654911118 97.5136128676177 H 0.0 **** 0.06
7804 H 16.176600628015184 49.75485604221001 99.17156006806931 H 0.0 **** 0.06
7805 H 15.123814699651316 50.10905481206942 97.77971032703735 H 0.0 **** 0.06
7806 C 67.78499845881515 29.593479668519052 43.278970653497844 C 0.0 **** -0.24
7807 H 67.9042944026342 29.13720068126773 44.26129722391115 H 0.0 **** 0.06
7808 H 67.08947915932032 29.000167404252977 42.685206354122634 H 0.0 **** 0.06
7809 H 68.75213732516562 29.630731825219982 42.776266626727306 H 0.0 **** 0.06
7810 H 67.39515201102193 30.604729507462082 43.39229338427775 H 0.0 **** 0.06
7811 C 64.61302856734864 103.05875531968584 57.11025678916358 C 0.0 **** -0.24
7812 H 64.62583515993089 104.01457575309377 57.635197672273996 H 0.0 **** 0.06
7813 H 64.12006866281885 102.3103976436378 57.73173161518461 H 0.0 **** 0.06
7814 H 65.63636064309279 102.74318467656582 56.905546662051854 H 0.0 **** 0.06
7815 H 64.07125306822994 103.16680033723034 56.17187199877963 H 0.0 **** 0.06
7816 C 118.55282857831668 56.15377034010277 67.46654433564873 C 0.0 **** -0.24
7817 H 119.57891965912032 56.511377933228516 67.55842216756787 H 0.0 **** 0.06
7818 H 118.55525966759262 55.147874218634314 67.04826503300558 H 0.0 **** 0.06
7819 H 117.99445137721791 56.82044075684962 66.8091859549211 H 0.0 **** 0.06
7820 H 118.0844882816957 56.13859092786757 68.45100284572754 H 0.0 **** 0.06
7821 C 73.45383363790907 90.12532130528314 113.78619911245268 C 0.0 **** -0.24
7822 H 74.28212432699613 89.72202878685917 114.36887591412773 H 0.0 **** 0.06
7823 H 73.19609314236425 91.11649611089305 114.1593892951096 H 0.0 **** 0.06
7824 H 72.5908514713565 89.46586124124792 113.87882621115827 H 0.0 **** 0.06
7825 H 73.74664131196349 90.1949122842019 112.73908772029098 H 0.0 **** 0.06
7826 C 7.754541380318273 1.9917068321052707 97.93805343305951 C 0.0 **** -0.24
7827 H 6.824365651451927 2.2366232844582346 98.4497247636487 H 0.0 **** 0.06
7828 H 7.978372831486098 0.9333409627634346 98.07694843272117 H 0.0 **** 0.06
7829 H 8.565095621147748 2.59211239975647 98.3508760763549 H 0.0 **** 0.06
7830 H 7.651133257267091 2.2051568194958318 96.87357257056027 H 0.0 **** 0.06
7831 C 16.775446552567075 84.3133084258505 117.85263113929079 C 0.0 **** -0.24
7832 H 15.718001861298376 84.10922203300652 117.68794971496081 H 0.0 **** 0.06
7833 H 17.275635779181243 84.4351233082966 116.89192752525562 H 0.0 **** 0.06
7834 H 17.226202447768372 83.48179604898414 118.39486069289508 H 0.0 **** 0.06
7835 H 16.88255157072831 85.22796394277069 118.43672140248617 H 0.0 **** 0.06
7836 C 86.10175664331788 27.791872092792943 0.349264206058848 C 0.0 **** -0.24
7837 H 86.15078166754753 28.64704937833426 -0.3256387442114317 H 0.0 **** 0.06
7838 H 86.90988262599922 27.857308885322396 1.0775402320524137 H 0.0 **** 0.06
7839 H 86.20205728497908 26.870459984791665 -0.22376374950864886 H 0.0 **** 0.06
7840 H 85.14260825430486 27.794034021512175 0.868408062653728 H 0.0 **** 0.06
7841 C 64.74794124766214 6.285279925338159 19.714146473535834 C 0.0 **** -0.24
7842 H 64.80445313994483 5.5744175490959265 20.53807099340264 H 0.0 **** 0.06
7843 H 64.26771016516881 5.810841877947212 18.858225198979312 H 0.0 **** 0.06
7844 H 65.7535445231959 6.60220271957337 19.437971610346324 H 0.0 **** 0.06
7845 H 64.16622371454008 7.153098544245495 20.023130388278105 H 0.0 **** 0.06
7846 C 58.33453126804386 18.786323360387883 15.18652351727103 C 0.0 **** -0.24
7847 H 59.35239521749281 18.5525903504074 14.875016844845746 H 0.0 **** 0.06
7848 H 58.36054097564022 19.536588524099727 15.977083619490312 H 0.0 **** 0.06
7849 H 57.85235742344682 17.882642553412495 15.559712436412106 H 0.0 **** 0.06
7850 H 57.773936772117224 19.172508453422267 14.336243355498247 H 0.0 **** 0.06
7851 C 69.66873219285756 64.8978528564738 94.05821157834404 C 0.0 **** -0.24
7852 H 69.75011204416347 65.13456988003173 92.99751373333194 H 0.0 **** 0.06
7853 H 70.60609406180583 64.4640343642632 94.40631760681774 H 0.0 **** 0.06
7854 H 68.85869123227843 64.18508715536294 94.2106229538403 H 0.0 **** 0.06
7855 H 69.45994431714348 65.80995446208439 94.61839183926452 H 0.0 **** 0.06
7856 C 31.338518315541705 8.38827675936605 57.15459557729144 C 0.0 **** -0.24
7857 H 31.98990230889649 7.548607543115935 57.39334642428609 H 0.0 **** 0.06
7858 H 31.944136275049686 9.241063505785235 56.84551095080281 H 0.0 **** 0.06
7859 H 30.75445107504487 8.657262338400727 58.03433175724319 H 0.0 **** 0.06
7860 H 30.666247399493272 8.107654337962742 56.344023915391766 H 0.0 **** 0.06
7861 C 35.64461426021862 33.016527162343436 13.752040560017207 C 0.0 **** -0.24
7862 H 35.55115625806556 32.893850784314054 14.831558849947697 H 0.0 **** 0.06
7863 H 35.700971146909154 32.03666882624486 13.277782066598235 H 0.0 **** 0.06
7864 H 36.549430320256164 33.58226120718018 13.528638479405458 H 0.0 **** 0.06
7865 H 34.77613596904001 33.5552670013854 13.372561395824732 H 0.0 **** 0.06
7866 C 47.70320300122518 17.012429555255437 46.014528937995976 C 0.0 **** -0.24
7867 H 48.09607377011838 18.0049509901325 46.235038184091934 H 0.0 **** 0.06
7868 H 48.444015487828665 16.446877112159342 45.44815455570817 H 0.0 **** 0.06
7869 H 46.78984112040553 17.105542205907142 45.42712816455571 H 0.0 **** 0.06
7870 H 47.484168127442274 16.49292907210051 46.9478802083876 H 0.0 **** 0.06
7871 C 49.02858828688238 110.72594956402759 16.132575586821474 C 0.0 **** -0.24
7872 H 48.43304772950398 109.81282071305124 16.111226965575128 H 0.0 **** 0.06
7873 H 48.36651212541881 111.5902989198627 16.178389165408873 H 0.0 **** 0.06
7874 H 49.63843351898606 110.78236460073336 15.229818797550593 H 0.0 **** 0.06
7875 H 49.67682678178073 110.71602186543201 17.008516128963862 H 0.0 **** 0.06
7876 C 51.77502398792234 106.09568588663109 40.97707212505705 C 0.0 **** -0.24
7877 H 51.89357407735673 105.04685928081943 40.70565514636888 H 0.0 **** 0.06
7878 H 51.89541477568258 106.71664066709542 40.088928086339365 H 0.0 **** 0.06
7879 H 52.529801066391826 106.3668271853569 41.715658317093045 H 0.0 **** 0.06
7880 H 50.782293137354884 106.2518951724287 41.39891531017278 H 0.0 **** 0.06
7881 C 117.5667474923801 78.69160922182968 16.707345210124856 C 0.0 **** -0.24
7882 H 116.87722619033144 79.43854385629356 17.101027326546387 H 0.0 **** 0.06
7883 H 118.55765491838503 79.13368401597481 16.599183420172977 H 0.0 **** 0.06
7884 H 117.2126702380076 78.34864160557382 15.735117824967887 H 0.0 **** 0.06
7885 H 117.61740551596677 77.84693372157707 17.394056652165432 H 0.0 **** 0.06
7886 C 1.2805398303295163 35.086431099364404 93.75673534325188 C 0.0 **** -0.24
7887 H 1.0220365828012916 34.070251332892894 94.05714908399139 H 0.0 **** 0.06
7888 H 0.36724199616951125 35.65992889974805 93.59332480884245 H 0.0 **** 0.06
7889 H 1.860288197035615 35.05482128631522 92.83478840271621 H 0.0 **** 0.06
7890 H 1.8710725494663905 35.557855122705064 94.54236189036209 H 0.0 **** 0.06
7891 C 11.754260743443098 34.87193829396393 72.28815380525947 C 0.0 **** -0.24
7892 H 12.154203085542179 34.80069385034598 71.27617209493661 H 0.0 **** 0.06
7893 H 12.116585022313728 34.03347361193855 72.88212401041079 H 0.0 **** 0.06
7894 H 10.665478527225247 34.84840564065628 72.25024562456241 H 0.0 **** 0.06
7895 H 12.080887392595486 35.80775453594891 72.74224035373544 H 0.0 **** 0.06
7896 C 3.8207459961575267 34.181853235981976 98.65857303066088 C 0.0 **** -0.24
7897 H 4.443253060585377 34.054430600413355 99.54386505041941 H 0.0 **** 0.06
7898 H 3.3808805625380813 35.179603992784365 98.66444250326748 H 0.0 **** 0.06
7899 H 3.0276738179204017 33.434598522565835 98.66090520655769 H 0.0 **** 0.06
7900 H 4.431894957901335 34.06041946401797 97.76373929973988 H 0.0 **** 0.06
7901 C 113.18549286583055 32.51535083858758 23.201647536378687 C 0.0 **** -0.24
7902 H 112.82660852708915 32.67871315659821 24.217799764464132 H 0.0 **** 0.06
7903 H 112.77420309677956 33.28066476864984 22.54386805165217 H 0.0 **** 0.06
7904 H 112.86888524730566 31.531019907411547 22.857501095576936 H 0.0 **** 0.06
7905 H 114.2745857545294 32.572609255131994 23.188463872072077 H 0.0 **** 0.06
7906 C 68.87386406748325 101.12767512250196 5.144748120681735 C 0.0 **** -0.24
7907 H 69.49259860659959 101.47780225222073 4.31881706909483 H 0.0 **** 0.06
7908 H 68.1131743074661 101.8761314240817 5.370021087509704 H 0.0 **** 0.06
7909 H 69.49734161202124 100.96733200114826 6.023724423843721 H 0.0 **** 0.06
7910 H 68.39065464530981 100.19120531556177 4.866290729758584 H 0.0 **** 0.06
7911 C 71.29452930145067 109.80760837672584 50.20713837552367 C 0.0 **** -0.24
7912 H 71.32460643434112 108.91260230976698 49.586451641233396 H 0.0 **** 0.06
7913 H 72.25124552733342 109.93045835757587 50.714051061297795 H 0.0 **** 0.06
7914 H 70.50012714265387 109.70981029609972 50.947474347822066 H 0.0 **** 0.06
7915 H 71.10020733378721 110.67861538331246 49.58017153548195 H 0.0 **** 0.06
7916 C 6.016985351926863 30.69481553949356 95.32385275880648 C 0.0 **** -0.24
7917 H 6.047149460465079 30.780107665536065 94.23768981560619 H 0.0 **** 0.06
7918 H 6.3555513063448075 31.629395234411362 95.77154068616795 H 0.0 **** 0.06
7919 H 6.6690431456110275 29.88141378917186 95.64264393598404 H 0.0 **** 0.06
7920 H 4.995115864870641 30.487690118250626 95.64290358218744 H 0.0 **** 0.06
7921 C 6.467481238281101 83.89788841314564 79.18555379158477 C 0.0 **** -0.24
7922 H 6.602646266532499 84.4672402996678 80.10504245451935 H 0.0 **** 0.06
7923 H 5.826493412299847 83.03835877419459 79.38190292502406 H 0.0 **** 0.06
7924 H 7.437299406224081 83.55414034875412 78.82465961253095 H 0.0 **** 0.06
7925 H 6.003611838274114 84.53254105213651 78.42993495607902 H 0.0 **** 0.06
7926 C 72.27140420951045 97.6634579547632 115.54274795499947 C 0.0 **** -0.24
7927 H 72.6462148319869 97.00331931728283 116.32478857493675 H 0.0 **** 0.06
7928 H 71.69451407259223 98.47085550407897 115.9937496579941 H 0.0 **** 0.06
7929 H 71.63576246960707 97.09669214595951 114.86276292662478 H 0.0 **** 0.06
7930 H 73.11194662539242 98.08316626086054 114.98869015608423 H 0.0 **** 0.06
7931 C 89.80417197427516 12.379785635006382 4.092711762669566 C 0.0 **** -0.24
7932 H 90.78297696396066 12.860718056590962 4.082739479318647 H 0.0 **** 0.06
7933 H 89.49193899254499 12.216011806047405 5.12484903845764 H 0.0 **** 0.06
7934 H 89.8636915968612 11.423460148964956 3.5744140988339836 H 0.0 **** 0.06
7935 H 89.0798336177429 13.020773952954137 3.5907441783944307 H 0.0 **** 0.06
7936 C 93.89162087702852 77.46934462959359 49.91140814127837 C 0.0 **** -0.24
7937 H 93.19401258241328 77.89473214409779 49.19040144121314 H 0.0 **** 0.06
7938 H 94.89469582418246 77.4637013541626 49.486950521766914 H 0.0 **** 0.06
7939 H 93.5907516196792 76.44872671588823 50.14796751191281 H 0.0 **** 0.06
7940 H 93.88417162587055 78.07034115017888 50.82123632011161 H 0.0 **** 0.06
7941 C 12.878430594746789 15.744442479820933 63.45206645354039 C 0.0 **** -0.24
7942 H 12.765923667113952 14.839500169771696 62.85454640736979 H 0.0 **** 0.06
7943 H 12.006340348921924 16.382879208976917 63.31149368385709 H 0.0 **** 0.06
7944 H 13.774094997495041 16.27882777538801 63.135825746975534 H 0.0 **** 0.06
7945 H 12.96718004488082 15.47587105762932 64.50482260157384 H 0.0 **** 0.06
7946 C 111.32579625187917 114.23416192648665 72.46368823045674 C 0.0 **** -0.24
7947 H 110.94542492007494 113.2764754703747 72.81871338226665 H 0.0 **** 0.06
7948 H 111.93155646801095 114.07564302833165 71.57101699338966 H 0.0 **** 0.06
7949 H 111.9378027042371 114.69229153943706 73.24132631523668 H 0.0 **** 0.06
7950 H 110.48956704446428 114.89095379441221 72.22510765023054 H 0.0 **** 0.06
7951 C 24.844456113243837 77.61345800186072 75.58073066664713 C 0.0 **** -0.24
7952 H 24.597362517537334 77.17966583612039 74.61154868837124 H 0.0 **** 0.06
7953 H 23.957676654848683 78.08596539387167 76.00243849127469 H 0.0 **** 0.06
7954 H 25.62953246725874 78.3586222049787 75.45483006821587 H 0.0 **** 0.06
7955 H 25.193450981397774 76.82872681585144 76.25204737770031 H 0.0 **** 0.06
7956 C 10.443231929252647 29.70342304983791 107.3287464957607 C 0.0 **** -0.24
7957 H 10.490640543219108 28.909164121736637 108.07409391744446 H 0.0 **** 0.06
7958 H 10.18227777891083 29.278252660344066 106.35941442564564 H 0.0 **** 0.06
7959 H 11.414638733501391 30.194671411826107 107.26045648503617 H 0.0 **** 0.06
7960 H 9.688060097985268 30.43279836506821 107.62217917970727 H 0.0 **** 0.06
7961 C 40.22808911833822 59.54603505613244 24.48771016829761 C 0.0 **** -0.24
7962 H 40.36597193665968 58.777953622584334 23.7272670354794 H 0.0 **** 0.06
7963 H 39.684608495112 59.12497639503087 25.334299242054072 H 0.0 **** 0.06
7964 H 39.65998184422674 60.37552542758522 24.067107749369683 H 0.0 **** 0.06
7965 H 41.20078086896386 59.904339068223095 24.823244821330945 H 0.0 **** 0.06
7966 C 100.91528004012685 78.86511149923834 30.123911338649393 C 0.0 **** -0.24
7967 H 100.26931283226338 78.01986439495334 30.36107006182 H 0.0 **** 0.06
7968 H 101.50727061843008 79.12670919701134 31.00185522115362 H 0.0 **** 0.06
7969 H 100.30432998871572 79.71737894015624 29.829626267622217 H 0.0 **** 0.06
7970 H 101.58132405274023 78.59451950331893 29.304018680909024 H 0.0 **** 0.06
7971 C 78.64595351786943 18.906587599085782 34.675687571087394 C 0.0 **** -0.24
7972 H 79.68952185042895 19.089194248061034 34.934816110045915 H 0.0 **** 0.06
7973 H 78.50644561579088 19.057161547362824 33.605192078254106 H 0.0 **** 0.06
7974 H 78.0094304615061 19.600480074230347 35.22646367091812 H 0.0 **** 0.06
7975 H 78.38064531255418 17.883311088780204 34.93755049135001 H 0.0 **** 0.06
7976 C 43.53940199518878 43.714682252402156 9.048914573974791 C 0.0 **** -0.24
7977 H 43.2167257361943 42.81004582260357 9.56441194364253 H 0.0 **** 0.06
7978 H 44.16211256271035 43.4444856403029 8.196035383510665 H 0.0 **** 0.06
7979 H 44.113559351925154 44.337715982627856 9.736143784339145 H 0.0 **** 0.06
7980 H 42.665897634511836 44.26642433743234 8.701810322387782 H 0.0 **** 0.06
7981 C 79.81492289606098 73.90312389948588 13.07801312949428 C 0.0 **** -0.24
7982 H 79.52719565061454 72.85210768311157 13.072965752139226 H 0.0 **** 0.06
7983 H 80.90129863011222 73.98234764661225 13.031419522625043 H 0.0 **** 0.06
7984 H 79.45451278125512 74.37404071057091 13.992306542698998 H 0.0 **** 0.06
7985 H 79.37707454161213 74.40467204158068 12.214179274517775 H 0.0 **** 0.06
7986 C 26.1875242927087 101.14671858765021 10.816882998426422 C 0.0 **** -0.24
7987 H 25.20647495672558 101.55000614528197 10.568389855737536 H 0.0 **** 0.06
7988 H 26.068294362260026 100.24192020903195 11.414825990837755 H 0.0 **** 0.06
7989 H 26.75084467785694 101.88596545469366 11.385587431320374 H 0.0 **** 0.06
7990 H 26.724451629872 100.90659994636314 9.899296691414975 H 0.0 **** 0.06
7991 C 31.845759138781403 27.09399870333388 18.78501405510457 C 0.0 **** -0.24
7992 H 31.013870662794318 26.766285728565265 19.409288354113897 H 0.0 **** 0.06
7993 H 31.459059109762194 27.61780326227222 17.910449889397995 H 0.0 **** 0.06
7994 H 32.422228547386226 26.22672558099569 18.464163806952683 H 0.0 **** 0.06
7995 H 32.48606061187067 27.764417483737844 19.357209981906266 H 0.0 **** 0.06
7996 C 97.68705884685693 54.180472325607596 37.202104582917286 C 0.0 **** -0.24
7997 H 98.43795287660669 54.7934030737703 36.702876517349296 H 0.0 **** 0.06
7998 H 98.1363174605226 53.2349680444245 37.50830550960228 H 0.0 **** 0.06
7999 H 96.86229730033938 53.986073661171005 36.51684617141001 H 0.0 **** 0.06
8000 H 97.31526596950494 54.707411283203875 38.08061920200504 H 0.0 **** 0.06
8001 C 23.01780700019185 71.31726792693965 101.16309702588816 C 0.0 **** -0.24
8002 H 22.25799344709594 72.05233056950448 100.8972383083707 H 0.0 **** 0.06
8003 H 23.008416104008916 70.50649644714161 100.43356904257774 H 0.0 **** 0.06
8004 H 22.805146161004927 70.91717518100648 102.15388845945736 H 0.0 **** 0.06
8005 H 23.998468082827173 71.792617780564 101.16447569067873 H 0.0 **** 0.06
8006 C 31.764891156784614 80.44995794149727 46.245802531385834 C 0.0 **** -0.24
8007 H 32.42336191237834 81.31742992501609 46.300795716294374 H 0.0 **** 0.06
8008 H 30.93254508502413 80.58125854497322 46.936956433185344 H 0.0 **** 0.06
8009 H 32.32395628192678 79.55392118567195 46.51455680882219 H 0.0 **** 0.06
8010 H 31.382697456610927 80.34939380912402 45.23034630130951 H 0.0 **** 0.06
8011 C 43.39219812554603 43.14377027500706 39.6613734935506 C 0.0 **** -0.24
8012 H 43.48294487936198 43.495821063183456 40.6884318050692 H 0.0 **** 0.06
8013 H 42.72896662361137 42.28004842654872 39.63043744446392 H 0.0 **** 0.06
8014 H 44.37590370718897 42.861288221077245 39.286749988850175 H 0.0 **** 0.06
8015 H 42.98174337766295 43.93982305501527 39.03897769878412 H 0.0 **** 0.06
8016 C 93.27586407579642 67.8902844721577 8.0031064144042 C 0.0 **** -0.24
8017 H 93.78085231866996 68.42471354564401 7.198366694450726 H 0.0 **** 0.06
8018 H 92.78479868683957 67.0052426083609 7.59885001239914 H 0.0 **** 0.06
8019 H 92.53233879318984 68.54204535342029 8.461246614098755 H 0.0 **** 0.06
8020 H 94.00698157868973 67.58997360004025 8.75390076998599 H 0.0 **** 0.06
8021 C 51.15629249629639 83.94374545497314 77.45926759341043 C 0.0 **** -0.24
8022 H 51.39629179438725 83.47870203347094 76.50257402581201 H 0.0 **** 0.06
8023 H 50.338530376172784 84.65232202591292 77.32465713314119 H 0.0 **** 0.06
8024 H 52.0331174797341 84.4694822313867 77.83793550771205 H 0.0 **** 0.06
8025 H 50.85763047122012 83.17534603252113 78.17219036584765 H 0.0 **** 0.06
8026 C 35.31546003255056 33.53379223828958 22.54909988123437 C 0.0 **** -0.24
8027 H 35.596194185002446 34.571995063486185 22.37201573539923 H 0.0 **** 0.06
8028 H 35.16496487270314 33.37481634206773 23.617331361504114 H 0.0 **** 0.06
8029 H 36.108600787277794 32.87655355559511 22.191890338411426 H 0.0 **** 0.06
8030 H 34.39198649041094 33.311521998570555 22.01420723843397 H 0.0 **** 0.06
8031 C 74.21348863103262 55.637777998737 12.301963321606138 C 0.0 **** -0.24
8032 H 73.83261580396322 55.32223081233659 13.27383651013534 H 0.0 **** 0.06
8033 H 73.60391107240727 56.458262906859 11.92283364826028 H 0.0 **** 0.06
8034 H 74.17107446346776 54.79957907507742 11.606714336561453 H 0.0 **** 0.06
8035 H 75.246263573493 55.97040070986662 12.40739877891059 H 0.0 **** 0.06
8036 C 47.53727974180748 48.91536500304392 11.266415009429025 C 0.0 **** -0.24
8037 H 47.97062288826476 49.87093573552772 10.971200072480741 H 0.0 **** 0.06
8038 H 47.4386781494199 48.88149867442394 12.351960234557083 H 0.0 **** 0.06
8039 H 48.18601126260825 48.104767345886216 10.9342065929836 H 0.0 **** 0.06
8040 H 46.55453798693435 48.804559417565144 10.808905127510158 H 0.0 **** 0.06
8041 C 74.57334671254961 24.258879667424225 5.146212240981891 C 0.0 **** -0.24
8042 H 73.66767754348191 23.94199734140983 5.662929272096086 H 0.0 **** 0.06
8043 H 74.35249329040093 24.418324857877252 4.091337130117751 H 0.0 **** 0.06
8044 H 75.33796753366443 23.48830534308226 5.246346154018514 H 0.0 **** 0.06
8045 H 74.9357081698796 25.188461466595072 5.586059337640888 H 0.0 **** 0.06
8046 C 73.69748940903003 55.33638395195762 19.451848326957617 C 0.0 **** -0.24
8047 H 73.00995899960404 54.62772760450979 18.98903114439102 H 0.0 **** 0.06
8048 H 74.71525082839904 55.11697077573721 19.129616882728413 H 0.0 **** 0.06
8049 H 73.63213740236034 55.248716144827476 20.53718612974228 H 0.0 **** 0.06
8050 H 73.43046985216688 56.34964519071685 19.152095474271334 H 0.0 **** 0.06
8051 C 103.5625220346181 15.752421256346594 99.0276919318178 C 0.0 **** -0.24
8052 H 104.42094666555016 15.217918760814655 99.43495698664941 H 0.0 **** 0.06
8053 H 103.15825809630684 15.197695495856834 98.18124728524157 H 0.0 **** 0.06
8054 H 103.87425218002926 16.743495234977388 98.69893180880968 H 0.0 **** 0.06
8055 H 102.79680234092001 15.849754216641998 99.79770443228972 H 0.0 **** 0.06
8056 C 59.53211366051079 118.84101564765865 17.622485525318524 C 0.0 **** -0.24
8057 H 60.27800096428214 118.04784362329883 17.571910485199282 H 0.0 **** 0.06
8058 H 59.15207083210217 118.9168666673134 18.641607049546224 H 0.0 **** 0.06
8059 H 58.711233058358175 118.61075265966178 16.944184341767652 H 0.0 **** 0.06
8060 H 59.988066559578414 119.78731789156808 17.33295912969166 H 0.0 **** 0.06
8061 C 118.33632921363892 4.37428153326748 17.158640091155235 C 0.0 **** -0.24
8062 H 117.62965570155501 5.031873152480033 17.66443980669959 H 0.0 **** 0.06
8063 H 119.32578228244836 4.496869646601512 17.599823026656594 H 0.0 **** 0.06
8064 H 118.37570483736505 4.628810824850328 16.099689692734955 H 0.0 **** 0.06
8065 H 118.0136297858744 3.338903714778466 17.27111436348079 H 0.0 **** 0.06
8066 C 88.6446070358981 51.23305138897392 17.595406461139028 C 0.0 **** -0.24
8067 H 88.96055063554365 51.0688627622902 18.62594871962252 H 0.0 **** 0.06
8068 H 88.97029717941959 50.39437206350467 16.978782117478996 H 0.0 **** 0.06
8069 H 89.09048426807766 52.15433328323702 17.221679711011173 H 0.0 **** 0.06
8070 H 87.55862612217607 51.312623732694874 17.556829109844927 H 0.0 **** 0.06
8071 C 81.25909756482815 49.712315396579726 109.0893950813373 C 0.0 **** -0.24
8072 H 81.01140623606813 49.04821019078926 108.26235956254843 H 0.0 **** 0.06
8073 H 82.01541852086484 49.24262824348875 109.7190642150386 H 0.0 **** 0.06
8074 H 80.36407344009453 49.90678189357337 109.67932821050054 H 0.0 **** 0.06
8075 H 81.64611785462876 50.651997781295364 108.69613455489366 H 0.0 **** 0.06
8076 C 51.164381903010934 39.02720834237053 94.81863716059033 C 0.0 **** -0.24
8077 H 50.590228813267856 39.061563394460336 95.74477891894531 H 0.0 **** 0.06
8078 H 52.227974452336554 39.08394765352932 95.04918450805118 H 0.0 **** 0.06
8079 H 50.88378805743463 39.871002181376866 94.18719223121354 H 0.0 **** 0.06
8080 H 50.953919594336355 38.09472506864341 94.29500644665987 H 0.0 **** 0.06
8081 C 41.00579463824653 11.62726880968372 31.4953521813178 C 0.0 **** -0.24
8082 H 41.22485825762476 10.648903482056863 31.067124423270712 H 0.0 **** 0.06
8083 H 41.82987238508974 11.935744215123531 32.13762492939151 H 0.0 **** 0.06
8084 H 40.08872972018139 11.56975855403104 32.08216996311927 H 0.0 **** 0.06
8085 H 40.877919894756474 12.35449028979789 30.692835761290837 H 0.0 **** 0.06
8086 C 118.15321432157364 31.41979906827811 39.75057908600024 C 0.0 **** -0.24
8087 H 117.77787883397633 31.847644581464664 40.67966196739235 H 0.0 **** 0.06
8088 H 117.55869564805607 31.788383306387317 38.91387193853774 H 0.0 **** 0.06
8089 H 118.08130968318878 30.333503338839364 39.79626095497707 H 0.0 **** 0.06
8090 H 119.1949324681629 31.709077693500575 39.61171313759502 H 0.0 **** 0.06
8091 C 18.740041903580334 71.13767224420724 65.58462815387708 C 0.0 **** -0.24
8092 H 18.77039426591631 71.23046994932241 64.49935867363251 H 0.0 **** 0.06
8093 H 18.634548167128486 70.08742790560939 65.85673378554321 H 0.0 **** 0.06
8094 H 17.892617665094633 71.70216860347591 65.9733627390143 H 0.0 **** 0.06
8095 H 19.6639001045954 71.53190070610208 66.00775520987042 H 0.0 **** 0.06
8096 C 113.16485464211121 41.13499537090996 61.75995934506779 C 0.0 **** -0.24
8097 H 113.53001545635443 41.99311119187948 61.19425935251288 H 0.0 **** 0.06
8098 H 113.94810025442521 40.37910313798727 61.81788876834815 H 0.0 **** 0.06
8099 H 112.29143443266162 40.716605906193394 61.260333555360795 H 0.0 **** 0.06
8100 H 112.89157855447147 41.45335959012439 62.765857928084465 H 0.0 **** 0.06
8101 C 31.28123847278806 56.5704498862284 28.469189410037018 C 0.0 **** -0.24
8102 H 31.345266315745675 55.48691934299214 28.368772412486067 H 0.0 **** 0.06
8103 H 30.78032136127473 56.81883673649898 29.4046660625786 H 0.0 **** 0.06
8104 H 30.714709464094938 56.97908382337886 27.632181177481698 H 0.0 **** 0.06
8105 H 32.28525546607301 56.99434651463426 28.469460581915655 H 0.0 **** 0.06
8106 C 25.21331933495341 5.158153478880195 28.57428511693523 C 0.0 **** -0.24
8107 H 26.014989905659533 4.56628043266258 29.016263822348122 H 0.0 **** 0.06
8108 H 25.493916252385333 5.451463617253694 27.56220895470352 H 0.0 **** 0.06
8109 H 25.044777679623827 6.049365338163 29.178556317890852 H 0.0 **** 0.06
8110 H 24.299893137607924 4.564234847312491 28.540657493733832 H 0.0 **** 0.06
8111 C 37.113622259382794 81.45438630260443 54.899635562446186 C 0.0 **** -0.24
8112 H 36.36907207610312 81.04906154219583 54.21477323494065 H 0.0 **** 0.06
8113 H 36.649824580737544 81.64893828421611 55.867427324889825 H 0.0 **** 0.06
8114 H 37.51198063364251 82.38473681150398 54.494176394509736 H 0.0 **** 0.06
8115 H 37.924066648477236 80.73562257999089 55.02252656412099 H 0.0 **** 0.06
8116 C 16.64883221942496 112.0292005318519 57.95866093517967 C 0.0 **** -0.24
8117 H 15.652930786169463 111.82427693019233 58.35460583961946 H 0.0 **** 0.06
8118 H 16.725438828059822 111.62999978080751 56.94718143965154 H 0.0 **** 0.06
8119 H 17.396826262039724 111.55640388318935 58.595072600274484 H 0.0 **** 0.06
8120 H 16.816599585041928 113.10581147836578 57.93897535369438 H 0.0 **** 0.06
8121 C 1.9369513602430004 38.04483788981469 21.90326493666214 C 0.0 **** -0.24
8122 H 1.3144618954250404 37.51052257327001 22.62108774689051 H 0.0 **** 0.06
8123 H 2.6879264431261305 38.62742422033358 22.435997615655594 H 0.0 **** 0.06
8124 H 1.3132767966221053 38.71281603758513 21.3087114617079 H 0.0 **** 0.06
8125 H 2.430507240041152 37.328561110889325 21.245735628607065 H 0.0 **** 0.06
8126 C 70.73973074358699 59.62719479345554 24.222058839536125 C 0.0 **** -0.24
8127 H 70.20278067664103 58.98251198126113 23.525298232974997 H 0.0 **** 0.06
8128 H 70.10024854302014 59.85330780130533 25.075232904037087 H 0.0 **** 0.06
8129 H 71.01689978545139 60.55382460331084 23.718901689151792 H 0.0 **** 0.06
8130 H 71.63952125201826 59.11692975652597 24.566381694636043 H 0.0 **** 0.06
8131 C 107.24115609633282 85.60970346881075 101.12822624871635 C 0.0 **** -0.24
8132 H 107.23511896081669 85.49777860750828 100.04427472156556 H 0.0 **** 0.06
8133 H 107.00853995829567 86.64324156991933 101.38826548078069 H 0.0 **** 0.06
8134 H 108.22734329094536 85.35099927112765 101.51482368037964 H 0.0 **** 0.06
8135 H 106.49447306434186 84.94774630603621 101.5661494135584 H 0.0 **** 0.06
8136 C 14.88533967893133 94.36388036294025 23.578498716800674 C 0.0 **** -0.24
8137 H 15.379861682891686 93.61305590777584 22.96350107356325 H 0.0 **** 0.06
8138 H 15.50427034531998 95.26070423582027 23.625726124809525 H 0.0 **** 0.06
8139 H 14.737804560370591 93.96986197938065 24.58437321807302 H 0.0 **** 0.06
8140 H 13.917989728903137 94.6128055359035 23.140751101306 H 0.0 **** 0.06
8141 C 116.06486557661786 102.93601000306037 55.2677486406423 C 0.0 **** -0.24
8142 H 115.87922086701383 102.59036651392958 54.25122852804195 H 0.0 **** 0.06
8143 H 115.1140717215356 103.07637466855974 55.78354750849471 H 0.0 **** 0.06
8144 H 116.60483471167665 103.88276955248585 55.23621602999038 H 0.0 **** 0.06
8145 H 116.66121820543125 102.19546583382984 55.79967192391498 H 0.0 **** 0.06
8146 C 6.196099781299008 95.98394158750415 110.92483047896012 C 0.0 **** -0.24
8147 H 6.621421057564522 96.21686865356219 109.94876165501093 H 0.0 **** 0.06
8148 H 5.2440810186779405 95.46895447927307 110.79315219926174 H 0.0 **** 0.06
8149 H 6.035944876606013 96.9074150588333 111.48153393613755 H 0.0 **** 0.06
8150 H 6.8835508820453875 95.34211163376494 111.47708580652962 H 0.0 **** 0.06
8151 C 96.3565673973844 78.48850226406691 17.521525753284436 C 0.0 **** -0.24
8152 H 95.64645804847675 79.28340632965717 17.74959331054049 H 0.0 **** 0.06
8153 H 96.98422929953978 78.30060223566102 18.392714419949016 H 0.0 **** 0.06
8154 H 96.98236874471101 78.78926213327361 16.681164667205167 H 0.0 **** 0.06
8155 H 95.81236878978885 77.58030977265628 17.262309923242697 H 0.0 **** 0.06
8156 C 57.16912628237401 79.57317027398909 62.45741156846265 C 0.0 **** -0.24
8157 H 56.91582519188148 80.5721928137641 62.10147458187884 H 0.0 **** 0.06
8158 H 58.22874224347814 79.53506950311532 62.709891089400536 H 0.0 **** 0.06
8159 H 56.95356403445268 78.84481773517794 61.676738802919225 H 0.0 **** 0.06
8160 H 56.57583568214565 79.3430426596274 63.342805920874945 H 0.0 **** 0.06
8161 C 104.90804534440278 83.14639892942259 73.72725236668762 C 0.0 **** -0.24
8162 H 105.9239089949705 82.78230960345718 73.57482351051158 H 0.0 **** 0.06
8163 H 104.1979158964894 82.3598492424876 73.47159764213214 H 0.0 **** 0.06
8164 H 104.734434857369 84.01422464929678 73.09007299186644 H 0.0 **** 0.06
8165 H 104.77586444831499 83.43036115572599 74.77122038656859 H 0.0 **** 0.06
8166 C 91.34457303909863 54.05959642134985 56.24607372920379 C 0.0 **** -0.24
8167 H 91.08193057950427 53.266741444382134 56.947504824292686 H 0.0 **** 0.06
8168 H 90.7638338840872 53.9402311427329 55.331176708172514 H 0.0 **** 0.06
8169 H 92.40749200664683 53.99996927120819 56.01302563349427 H 0.0 **** 0.06
8170 H 91.12448480929959 55.028311433393675 56.693528648644296 H 0.0 **** 0.06
8171 C 116.90241456885947 4.638171304161531 116.1488353608704 C 0.0 **** -0.24
8172 H 116.7453818188513 5.712495375161993 116.24278773775455 H 0.0 **** 0.06
8173 H 115.94892637726288 4.148263074730977 115.94701150528294 H 0.0 **** 0.06
8174 H 117.32138066367123 4.2495350229822435 117.07720481392792 H 0.0 **** 0.06
8175 H 117.59256112566649 4.442284430817281 115.32826444570227 H 0.0 **** 0.06
8176 C 7.044240367175455 22.86250462378689 38.63834457483293 C 0.0 **** -0.24
8177 H 7.471953388438518 21.915149526887433 38.966642407188345 H 0.0 **** 0.06
8178 H 6.6154073545294665 22.740352388834935 37.64330854754675 H 0.0 **** 0.06
8179 H 7.825659027414005 23.621715194773685 38.607689282413475 H 0.0 **** 0.06
8180 H 6.265263375831157 23.16940694331521 39.33488263457838 H 0.0 **** 0.06
8181 C 65.03876531329567 54.81182325323315 33.25683569522897 C 0.0 **** -0.24
8182 H 65.88325664405173 54.96375504098429 32.58374226656878 H 0.0 **** 0.06
8183 H 65.07744593471838 53.801695385417545 33.665109004574674 H 0.0 **** 0.06
8184 H 64.1081741855046 54.946821688327 32.70729767635669 H 0.0 **** 0.06
8185 H 65.08948218683653 55.53501176979305 34.07083922209932 H 0.0 **** 0.06
8186 C 58.60712650834642 55.04097306950058 2.3360570001129304 C 0.0 **** -0.24
8187 H 57.579829192711266 55.07081939718657 1.971416005259428 H 0.0 **** 0.06
8188 H 58.90574985092021 56.036520592640954 2.6620918281127217 H 0.0 **** 0.06
8189 H 59.26686818111438 54.70759663854602 1.535242648154835 H 0.0 **** 0.06
8190 H 58.674395433550906 54.34721273577034 3.175035041870501 H 0.0 **** 0.06
8191 C 40.73539246673391 106.54227062908282 94.98574968839861 C 0.0 **** -0.24
8192 H 41.234827773516486 105.58781249303863 94.82111501218566 H 0.0 **** 0.06
8193 H 39.87464005564988 106.39363198919648 95.6391198093039 H 0.0 **** 0.06
8194 H 40.40078225870195 106.94680037364898 94.03100144512146 H 0.0 **** 0.06
8195 H 41.43026879223984 107.23957910077229 95.45328293001927 H 0.0 **** 0.06
8196 C 68.97029150571265 116.58678817105051 42.24559664955129 C 0.0 **** -0.24
8197 H 68.70612158084259 115.57733900667039 42.56075566389433 H 0.0 **** 0.06
8198 H 68.14853563786059 117.01436831907326 41.67052524390621 H 0.0 **** 0.06
8199 H 69.86728398763938 116.55133886356009 41.62698818845439 H 0.0 **** 0.06
8200 H 69.15857475541435 117.20341181733858 43.12442556399091 H 0.0 **** 0.06
8201 C 20.614153109001705 9.09545086004147 83.35803082657443 C 0.0 **** -0.24
8202 H 21.098684398540755 8.443711472795648 84.08503548125356 H 0.0 **** 0.06
8203 H 20.897256980267258 10.130564804253922 83.55101251897497 H 0.0 **** 0.06
8204 H 19.531254469772026 8.993656615205236 83.44392129832124 H 0.0 **** 0.06
8205 H 20.925822355488275 8.813612792853164 82.35227978676261 H 0.0 **** 0.06
8206 C 23.829855443238728 92.46513132088882 25.53981786496297 C 0.0 **** -0.24
8207 H 22.914223483817963 93.05111170119017 25.463341405856795 H 0.0 **** 0.06
8208 H 24.607862687543246 92.92594845252268 24.93005729928103 H 0.0 **** 0.06
8209 H 23.64228398353957 91.45183691511227 25.18508001032791 H 0.0 **** 0.06
8210 H 24.153585646746933 92.4323586726058 26.579644879563375 H 0.0 **** 0.06
8211 C 30.0550005624425 101.49824986766987 116.94244413655977 C 0.0 **** -0.24
8212 H 30.095775135024184 101.03662530150481 117.92926316294488 H 0.0 **** 0.06
8213 H 29.028529608146926 101.78803599389641 116.71943986268155 H 0.0 **** 0.06
8214 H 30.403181806551856 100.78671585986012 116.19379753155722 H 0.0 **** 0.06
8215 H 30.693945213343156 102.3813341736701 116.92864482078413 H 0.0 **** 0.06
8216 C 28.631581467089234 84.20715357728571 43.50761236627366 C 0.0 **** -0.24
8217 H 28.342348545416 83.74609715429537 44.452543538823505 H 0.0 **** 0.06
8218 H 29.079918221873506 83.45423524164909 42.85859868195942 H 0.0 **** 0.06
8219 H 29.35571690855553 84.99995622192975 43.697426610161486 H 0.0 **** 0.06
8220 H 27.75082366308788 84.62789455970096 43.02379296647857 H 0.0 **** 0.06
8221 C 102.07665181585864 26.06108124897279 35.78815574338745 C 0.0 **** -0.24
8222 H 102.06196012483522 25.68290604848182 36.81020477568913 H 0.0 **** 0.06
8223 H 101.09347666275113 25.925163016230982 35.337130858695474 H 0.0 **** 0.06
8224 H 102.82138348572443 25.514192785270254 35.209603812410336 H 0.0 **** 0.06
8225 H 102.32866137581811 27.121269955744985 35.796005953362254 H 0.0 **** 0.06
8226 C 3.933399036532137 50.808691909403095 103.96102328457323 C 0.0 **** -0.24
8227 H 3.0878313292994335 50.61756408544294 104.6210201925445 H 0.0 **** 0.06
8228 H 3.601793277660107 50.766631695733416 102.92391813926378 H 0.0 **** 0.06
8229 H 4.701834530743156 50.05380802357716 104.1286949879543 H 0.0 **** 0.06
8230 H 4.34389899358402 51.79651221049893 104.17214280570806 H 0.0 **** 0.06
8231 C 14.918726788870202 60.029963738449474 65.69461378102486 C 0.0 **** -0.24
8232 H 14.393379543334078 60.73510777388473 66.33896519751062 H 0.0 **** 0.06
8233 H 15.745874618254817 60.53835594089862 65.19889972873492 H 0.0 **** 0.06
8234 H 14.230299374315052 59.639021663163014 64.94540582818439 H 0.0 **** 0.06
8235 H 15.3062331055159 59.20730386774857 66.2962899482711 H 0.0 **** 0.06
8236 C 33.20671757601366 118.17391297438061 109.36818451982842 C 0.0 **** -0.24
8237 H 33.238698831715055 119.072941623867 109.98322047263075 H 0.0 **** 0.06
8238 H 33.54551865441792 117.31963213064174 109.95532820734178 H 0.0 **** 0.06
8239 H 33.85796360693456 118.30211196460526 108.5037059589115 H 0.0 **** 0.06
8240 H 32.18521524522163 118.0001891694852 109.0308292780721 H 0.0 **** 0.06
8241 C 18.759380248093947 82.21950486222158 80.33601621345812 C 0.0 **** -0.24
8242 H 18.907017809322724 83.19518554853332 79.87328421271073 H 0.0 **** 0.06
8243 H 19.5597124703811 82.0335036576378 81.05369830021624 H 0.0 **** 0.06
8244 H 18.775557351959947 81.44787916634118 79.5666511336591 H 0.0 **** 0.06
8245 H 17.798093188268737 82.20233224572624 80.84940870418893 H 0.0 **** 0.06
8246 C 111.92143731933946 110.38839994769012 111.11797752564321 C 0.0 **** -0.24
8247 H 111.34620934664086 111.3031977490348 110.9750183153186 H 0.0 **** 0.06
8248 H 111.38538789891648 109.54994651475228 110.67195790923672 H 0.0 **** 0.06
8249 H 112.05853610884104 110.20751588347086 112.18360193697406 H 0.0 **** 0.06
8250 H 112.89457590037662 110.49317586691973 110.63774538680026 H 0.0 **** 0.06
8251 C 79.33866823260416 14.46277436204683 59.97591113578562 C 0.0 **** -0.24
8252 H 79.04210984092455 15.469161428208487 60.270315149951045 H 0.0 **** 0.06
8253 H 78.9845410674699 14.261987657530934 58.96321305372311 H 0.0 **** 0.06
8254 H 78.90106998515057 13.739684364940175 60.66359140272601 H 0.0 **** 0.06
8255 H 80.42482566913168 14.380761844436261 60.004467939975996 H 0.0 **** 0.06
8256 C 50.32855260943626 6.040863099805122 6.3758131748135725 C 0.0 **** -0.24
8257 H 50.95094673682962 5.149127249973688 6.294681461835978 H 0.0 **** 0.06
8258 H 50.6435777259606 6.624183319068919 7.241631474460178 H 0.0 **** 0.06
8259 H 49.285935285747655 5.746212494888056 6.495135037385978 H 0.0 **** 0.06
8260 H 50.43552027572525 6.641436446427662 5.47343407248934 H 0.0 **** 0.06
8261 C 73.13633361664841 23.59247089906998 39.80759368361112 C 0.0 **** -0.24
8262 H 72.48836356138298 24.334234455906874 39.340548494446864 H 0.0 **** 0.06
8263 H 73.34930573153184 23.8911348045404 40.83390470155442 H 0.0 **** 0.06
8264 H 74.06955276960076 23.52204974102601 39.247316484548065 H 0.0 **** 0.06
8265 H 72.63740603852187 22.622958434506167 39.80573143299475 H 0.0 **** 0.06
8266 C 94.53520802262298 44.4820941538875 52.045864556774376 C 0.0 **** -0.24
8267 H 94.26086583951036 44.99064515028809 51.12153353923557 H 0.0 **** 0.06
8268 H 93.69169794895177 43.886737007587605 52.39725503927656 H 0.0 **** 0.06
8269 H 94.79823064772438 45.22217504955124 52.80187378698605 H 0.0 **** 0.06
8270 H 95.389376491751 43.830191029558996 51.86197021373954 H 0.0 **** 0.06
8271 C 89.51908922828085 105.57546304648767 107.66674643550826 C 0.0 **** -0.24
8272 H 89.5318414322798 104.73452783267825 106.97343199614042 H 0.0 **** 0.06
8273 H 89.83531627986213 105.2367016514552 108.6545985930579 H 0.0 **** 0.06
8274 H 88.5097712529651 105.98127861947418 107.7274296741441 H 0.0 **** 0.06
8275 H 90.20095164776461 106.34872090807733 107.31206415167628 H 0.0 **** 0.06
8276 C 1.6234951633883803 46.26881504594466 103.71630119762415 C 0.0 **** -0.24
8277 H 2.369335405232146 45.89402577478551 104.41621106196237 H 0.0 **** 0.06
8278 H 0.6257554141894879 46.039588350702175 104.09163322555426 H 0.0 **** 0.06
8279 H 1.7647678424347308 45.79237514574003 102.74582829228731 H 0.0 **** 0.06
8280 H 1.73349803297301 47.34805750510339 103.6111601421596 H 0.0 **** 0.06
8281 C 83.20533189607588 39.88687240050703 71.40663189513626 C 0.0 **** -0.24
8282 H 82.60776058784882 40.7217183328336 71.77440824197902 H 0.0 **** 0.06
8283 H 82.91819025321652 38.975791012910165 71.93351145401911 H 0.0 **** 0.06
8284 H 84.26167321381541 40.0903260275318 71.58255294827373 H 0.0 **** 0.06
8285 H 83.031425437531 39.75917170767369 70.33841673958491 H 0.0 **** 0.06
8286 C 112.3898588773038 83.00260884471004 42.86867497884714 C 0.0 **** -0.24
8287 H 112.99137389722155 83.07251297408067 41.96252286904047 H 0.0 **** 0.06
8288 H 112.75163862099492 82.17777788205058 43.48274083958624 H 0.0 **** 0.06
8289 H 111.34781112280791 82.82599610517065 42.60049026991139 H 0.0 **** 0.06
8290 H 112.4678422272764 83.93451360059458 43.42946972378846 H 0.0 **** 0.06
8291 C 11.749576115010882 23.940985810978788 7.652716481381333 C 0.0 **** -0.24
8292 H 12.488848729418976 23.153480971751335 7.50832234742083 H 0.0 **** 0.06
8293 H 10.895909793740685 23.7612219154599 6.998409683286141 H 0.0 **** 0.06
8294 H 12.196044523311741 24.906204630279824 7.411906989639107 H 0.0 **** 0.06
8295 H 11.41821617054839 23.942623554452197 8.690404963642237 H 0.0 **** 0.06
8296 C 61.02763637132173 21.817171362968764 17.294907755808254 C 0.0 **** -0.24
8297 H 60.96193893490611 20.88148639061268 17.849752800465126 H 0.0 **** 0.06
8298 H 62.0206785109422 21.908231786027386 16.852805978477278 H 0.0 **** 0.06
8299 H 60.8519359895159 22.65377633802092 17.971120782351676 H 0.0 **** 0.06
8300 H 60.276036758244324 21.824831395493618 16.50458440377122 H 0.0 **** 0.06
8301 C 22.42894668673324 100.42119868473961 74.25775708955697 C 0.0 **** -0.24
8302 H 22.226200464608695 101.47754992015479 74.07864075158389 H 0.0 **** 0.06
8303 H 23.394821298136804 100.3161789194404 74.75174863345262 H 0.0 **** 0.06
8304 H 22.44633843723463 99.88847841799597 73.3073265696456 H 0.0 **** 0.06
8305 H 21.647970434306075 100.00472302101636 74.8937937812062 H 0.0 **** 0.06
8306 C 108.2110107239132 31.062753406879352 72.60175128730555 C 0.0 **** -0.24
8307 H 107.67371840487604 31.85265610858105 73.12568467844449 H 0.0 **** 0.06
8308 H 108.66397867681883 31.469534076362294 71.6976113142932 H 0.0 **** 0.06
8309 H 107.51551579857136 30.26675813030804 72.33345300521319 H 0.0 **** 0.06
8310 H 108.99000997338985 30.66149714289874 73.25032524000034 H 0.0 **** 0.06
8311 C 56.0848976571948 66.05044699403288 65.74289249504315 C 0.0 **** -0.24
8312 H 55.66755480602325 66.94831149523111 65.28640165458481 H 0.0 **** 0.06
8313 H 56.91034039737352 66.32671244180358 66.39987067148272 H 0.0 **** 0.06
8314 H 56.44799661342006 65.38178459058463 64.96289040301363 H 0.0 **** 0.06
8315 H 55.31187166495562 65.54552125332339 66.3235769836053 H 0.0 **** 0.06
8316 C 48.35055211892717 52.09883339372493 35.475075990954366 C 0.0 **** -0.24
8317 H 47.48661870749174 52.22829882862891 36.12718821134388 H 0.0 **** 0.06
8318 H 48.352967896071334 52.88083922434339 34.71555203974731 H 0.0 **** 0.06
8319 H 48.297928755539886 51.12274966334127 34.99251312653024 H 0.0 **** 0.06
8320 H 49.2636991193844 52.1628498088034 36.0658610251493 H 0.0 **** 0.06
8321 C 3.3446688163058536 81.98085462336522 12.965892358591361 C 0.0 **** -0.24
8322 H 4.355632609586108 82.34070741796145 12.771311217905406 H 0.0 **** 0.06
8323 H 2.6521325561286933 82.45183317800885 12.268594522495334 H 0.0 **** 0.06
8324 H 3.0600411138356947 82.23263120730633 13.987283157999627 H 0.0 **** 0.06
8325 H 3.3124068149293606 80.89922646693 12.835086159088632 H 0.0 **** 0.06
8326 C 87.48174997786577 4.272134295334011 115.3025737386786 C 0.0 **** -0.24
8327 H 86.73490833673344 4.748891528832267 115.93686517895264 H 0.0 **** 0.06
8328 H 88.19132713040895 5.021561837387651 114.95114632846486 H 0.0 **** 0.06
8329 H 86.99079846673564 3.808018475636251 114.44807587380464 H 0.0 **** 0.06
8330 H 88.01173410057052 3.510734148202731 115.87540203102293 H 0.0 **** 0.06
8331 C 2.4619295945007593 53.45148560054807 42.876560092450745 C 0.0 **** -0.24
8332 H 2.5826059026545636 53.78349525175419 43.90829719947726 H 0.0 **** 0.06
8333 H 3.191116955532891 52.67064425052203 42.65993331066693 H 0.0 **** 0.06
8334 H 2.619684876502589 54.29413065793149 42.20380076348988 H 0.0 **** 0.06
8335 H 1.4550517835652954 53.058425842973264 42.737352890185264 H 0.0 **** 0.06
8336 C 118.32693574270093 113.33432027529079 93.35749797185565 C 0.0 **** -0.24
8337 H 119.10005812215945 113.1962924725039 92.60085555295976 H 0.0 **** 0.06
8338 H 117.4354197183078 113.75662904363696 92.89332873472179 H 0.0 **** 0.06
8339 H 118.69149258652482 114.01338174952275 94.12794223476692 H 0.0 **** 0.06
8340 H 118.08210530530329 112.37191129314965 93.80633151478133 H 0.0 **** 0.06
8341 C 39.355888786095846 24.98646169053427 2.0395408431192124 C 0.0 **** -0.24
8342 H 38.51440313339228 25.084073850409624 1.3533911868498905 H 0.0 **** 0.06
8343 H 39.651512785031116 23.939637355476073 2.104930424440994 H 0.0 **** 0.06
8344 H 39.06162353821901 25.343793904302814 3.026895532841891 H 0.0 **** 0.06
8345 H 40.19318992377582 25.579340417232274 1.6730805895961538 H 0.0 **** 0.06
8346 C 8.307082071500147 52.214598546189535 69.71274034997495 C 0.0 **** -0.24
8347 H 8.62232274480732 52.72107798528128 68.80103513091694 H 0.0 **** 0.06
8348 H 7.592291012241077 52.84080839229455 70.24731923342472 H 0.0 **** 0.06
8349 H 9.175070200174048 52.0314656393393 70.34601557361572 H 0.0 **** 0.06
8350 H 7.838176136893907 51.26419570610432 69.4563377742549 H 0.0 **** 0.06
8351 C 6.874793953513176 69.80108106439891 27.28678928570328 C 0.0 **** -0.24
8352 H 7.09395541266575 68.7347507787689 27.34400433093218 H 0.0 **** 0.06
8353 H 7.159738864087288 70.28096890163329 28.223795001084312 H 0.0 **** 0.06
8354 H 5.808094728151914 69.9442810808082 27.114783246278982 H 0.0 **** 0.06
8355 H 7.4373756520369625 70.24378882784276 26.465419587373304 H 0.0 **** 0.06
8356 C 104.30292000891279 6.3068292544542714 54.70875906795186 C 0.0 **** -0.24
8357 H 104.27576131568077 6.571591825219926 55.76581808336044 H 0.0 **** 0.06
8358 H 103.89238627791485 7.127180908263625 54.11826020083657 H 0.0 **** 0.06
8359 H 103.71042226333762 5.408075698681017 54.54335071379245 H 0.0 **** 0.06
8360 H 105.33410940242314 6.122704499588949 54.407556360115734 H 0.0 **** 0.06
8361 C 99.24124494179776 7.183910184569044 14.570658030452222 C 0.0 **** -0.24
8362 H 100.08460023569515 7.776705962649231 14.923101658411923 H 0.0 **** 0.06
8363 H 99.51739024344482 6.669889105763673 13.649145272360045 H 0.0 **** 0.06
8364 H 98.39144137310365 7.839383487196187 14.381142354458092 H 0.0 **** 0.06
8365 H 98.97142520992634 6.448790455546174 15.329717277158153 H 0.0 **** 0.06
8366 C 97.60630095165567 86.18974927387663 8.262577337130288 C 0.0 **** -0.24
8367 H 97.47102271277004 86.0911593130387 9.339876467217412 H 0.0 **** 0.06
8368 H 98.64398121381731 85.9739660272092 8.006739744530844 H 0.0 **** 0.06
8369 H 97.3596998151888 87.20692091777593 7.95765551993772 H 0.0 **** 0.06
8370 H 96.95102843641612 85.48728080655059 7.748406645169673 H 0.0 **** 0.06
8371 C 47.83713623809831 54.41874668795822 76.11242823781055 C 0.0 **** -0.24
8372 H 47.94685194732483 53.65885906959409 76.88649016764671 H 0.0 **** 0.06
8373 H 47.04297545892271 55.11027588291586 76.39294484830424 H 0.0 **** 0.06
8374 H 47.58506483861859 53.93986772302935 75.16621815532778 H 0.0 **** 0.06
8375 H 48.77494212205761 54.96474728352689 76.00540441620154 H 0.0 **** 0.06
8376 C 36.55153862851526 94.79209977328162 67.9421676580287 C 0.0 **** -0.24
8377 H 35.791487983244565 95.07977911867397 68.66968623152087 H 0.0 **** 0.06
8378 H 36.26045437461829 93.85666622501458 67.46339354099794 H 0.0 **** 0.06
8379 H 37.50723305595176 94.65919485398376 68.45063997619525 H 0.0 **** 0.06
8380 H 36.64671773617994 95.57266445852628 67.18868231614277 H 0.0 **** 0.06
8381 C 53.16858830653774 94.53776852831962 33.311504840110615 C 0.0 **** -0.24
8382 H 53.89088722724489 93.72223096453047 33.284278225071205 H 0.0 **** 0.06
8383 H 52.36800891706952 94.33767316140373 32.598593120967735 H 0.0 **** 0.06
8384 H 53.66544533672021 95.47161242149753 33.04976411890641 H 0.0 **** 0.06
8385 H 52.74980771643584 94.61723434098519 34.31574220902189 H 0.0 **** 0.06
8386 C 28.457788936998398 106.07035362173906 3.5500655680718864 C 0.0 **** -0.24
8387 H 29.438708465768258 105.79692452589376 3.161565934990506 H 0.0 **** 0.06
8388 H 27.728339489913026 105.31436270310695 3.2561677710194203 H 0.0 **** 0.06
8389 H 28.16285911376761 107.03784258081822 3.1441788070824543 H 0.0 **** 0.06
8390 H 28.50163246533785 106.13026924650188 4.637460354988974 H 0.0 **** 0.06
8391 C 75.42848320077348 54.768923212709325 59.58354413692225 C 0.0 **** -0.24
8392 H 74.40580429805351 55.01792285193159 59.29770904980949 H 0.0 **** 0.06
8393 H 75.73528826117484 55.397187598766806 60.420029110907855 H 0.0 **** 0.06
8394 H 76.09325896705724 54.939795484010205 58.73741686790154 H 0.0 **** 0.06
8395 H 75.47714256468043 53.721010661764524 59.87907603875552 H 0.0 **** 0.06
8396 C 107.1466249668886 107.47449533826978 94.70002258421812 C 0.0 **** -0.24
8397 H 107.25383719314266 106.77273997794128 95.52736866824168 H 0.0 **** 0.06
8398 H 107.33275275940176 106.95711724212347 93.75908480975681 H 0.0 **** 0.06
8399 H 107.86363350386844 108.2864783608778 94.81732920813195 H 0.0 **** 0.06
8400 H 106.1352274673292 107.8805264817374 94.6979346721534 H 0.0 **** 0.06
8401 C 48.94242885894599 26.703739167664935 112.15901000267876 C 0.0 **** -0.24
8402 H 49.43819946134846 25.740502889168823 112.28116554331453 H 0.0 **** 0.06
8403 H 48.5553986879853 26.786722117949267 111.14347022506041 H 0.0 **** 0.06
8404 H 49.658068701667545 27.505787954687662 112.34230206909896 H 0.0 **** 0.06
8405 H 48.12019830687102 26.781344722686356 112.86924431157694 H 0.0 **** 0.06
8406 C 68.6172732297735 43.3033415867251 7.700332035695315 C 0.0 **** -0.24
8407 H 67.54735952198331 43.38410839734252 7.889841649655601 H 0.0 **** 0.06
8408 H 68.83728544771265 42.328669113278224 7.2664810523032095 H 0.0 **** 0.06
8409 H 69.16112750388714 43.41537307694699 8.63790229965236 H 0.0 **** 0.06
8410 H 68.92367617709988 44.08739052887408 7.007482779510418 H 0.0 **** 0.06
8411 C 30.983390769950816 67.07558624335468 39.18433374569997 C 0.0 **** -0.24
8412 H 30.15575096969348 67.53265770247819 39.72540169599675 H 0.0 **** 0.06
8413 H 31.844024651402243 66.9852091880283 39.84610546083637 H 0.0 **** 0.06
8414 H 31.2457576088889 67.69702659142149 38.32844936494055 H 0.0 **** 0.06
8415 H 30.687085879747634 66.08535038526713 38.836545019671576 H 0.0 **** 0.06
8416 C 59.80424679357279 85.63562529443928 69.14652821579284 C 0.0 **** -0.24
8417 H 59.87265613119979 84.79624774133953 68.45412725726408 H 0.0 **** 0.06
8418 H 58.91742533318285 85.52019031685924 69.76990374346371 H 0.0 **** 0.06
8419 H 59.73448963592418 86.56547020271998 68.5843282468723 H 0.0 **** 0.06
8420 H 60.69212083454957 85.65820866361409 69.77823165488917 H 0.0 **** 0.06
8421 C 66.51583691429656 93.64936445162843 87.4250084091639 C 0.0 **** -0.24
8422 H 66.30873876175548 92.710538938072 87.93838503901696 H 0.0 **** 0.06
8423 H 67.44979913956266 94.06945649382425 87.79894401279793 H 0.0 **** 0.06
8424 H 65.70228640618467 94.35153045626726 87.60930460187555 H 0.0 **** 0.06
8425 H 66.6015486394553 93.46644056852273 86.35428955145062 H 0.0 **** 0.06
8426 C 58.836630180070216 103.09885721887395 109.5902226505564 C 0.0 **** -0.24
8427 H 59.52650564304844 102.47625513622421 109.01968771014313 H 0.0 **** 0.06
8428 H 59.38110190463584 103.93655521119231 110.02713596153772 H 0.0 **** 0.06
8429 H 58.38365566556581 102.5055079212774 110.38416297545356 H 0.0 **** 0.06
8430 H 58.05668914849761 103.47642493087272 108.92832898079845 H 0.0 **** 0.06
8431 C 107.69942541367223 58.77582260777942 73.93346847464937 C 0.0 **** -0.24
8432 H 106.80376577368583 58.76750772443384 74.55438088712668 H 0.0 **** 0.06
8433 H 108.47454204468374 58.17295568752169 74.40766707598877 H 0.0 **** 0.06
8434 H 108.05382264504678 59.80047708683509 73.82082134380283 H 0.0 **** 0.06
8435 H 107.46469366881175 58.36088059483603 72.95346863889765 H 0.0 **** 0.06
8436 C 10.7409160436751 27.233805301138972 42.168064122119034 C 0.0 **** -0.24
8437 H 11.332783484912028 27.345614205769394 43.07623218989798 H 0.0 **** 0.06
8438 H 11.18285924539174 27.832552411210585 41.37070926964398 H 0.0 **** 0.06
8439 H 9.721860004005975 27.572697968351903 42.35477813394229 H 0.0 **** 0.06
8440 H 10.726894354682372 26.185012840408547 41.87035725937125 H 0.0 **** 0.06
8441 C 19.537428698294406 53.6461761631368 10.469909420409191 C 0.0 **** -0.24
8442 H 19.696302564437445 52.618691224472144 10.143645226212396 H 0.0 **** 0.06
8443 H 18.775454617022632 53.665491112255125 11.249858823559954 H 0.0 **** 0.06
8444 H 19.205945235170674 54.248188264599975 9.623438065766138 H 0.0 **** 0.06
8445 H 20.470124603010134 54.05122920636009 10.861592851148352 H 0.0 **** 0.06
8446 C 17.69026706890972 94.60336905250801 31.529742680840002 C 0.0 **** -0.24
8447 H 17.834406584145142 94.68790246214616 30.45233630041926 H 0.0 **** 0.06
8448 H 17.948872619051116 95.54953316008698 32.00528366581594 H 0.0 **** 0.06
8449 H 18.331155807621485 93.81173334508802 31.920170911690604 H 0.0 **** 0.06
8450 H 16.648203179665472 94.36345026667732 31.738386710349317 H 0.0 **** 0.06
8451 C 16.010973918573455 73.49854911191105 56.69153797592636 C 0.0 **** -0.24
8452 H 16.61908492441887 73.19784715070509 55.83804811816986 H 0.0 **** 0.06
8453 H 15.946260808598993 72.672467995814 57.39995719709736 H 0.0 **** 0.06
8454 H 15.009689476968447 73.76240928648787 56.34915526379998 H 0.0 **** 0.06
8455 H 16.467225555762894 74.36045509861322 57.17691926664748 H 0.0 **** 0.06
8456 C 78.19301352376499 36.599690664090126 34.45971737651226 C 0.0 **** -0.24
8457 H 78.90565752520945 35.794540787691794 34.27719929160031 H 0.0 **** 0.06
8458 H 78.50586300750797 37.49159989725066 33.91671305143964 H 0.0 **** 0.06
8459 H 78.1562219916959 36.81613815863896 35.52654975836427 H 0.0 **** 0.06
8460 H 77.20474641781917 36.29322189225509 34.11693378878803 H 0.0 **** 0.06
8461 C 15.585720484896143 28.428984081184126 79.55038764084466 C 0.0 **** -0.24
8462 H 16.283407297871435 28.05957092756347 78.7985481465548 H 0.0 **** 0.06
8463 H 15.370874343158562 27.63645160889334 80.26687138556983 H 0.0 **** 0.06
8464 H 14.660915949306286 28.7413870332432 79.06508922585175 H 0.0 **** 0.06
8465 H 16.02902689618719 29.279011810174154 80.06905116716769 H 0.0 **** 0.06
8466 C 8.593568330508308 56.127172879641584 16.208780729045714 C 0.0 **** -0.24
8467 H 9.679090125789521 56.17892448172683 16.288459652452048 H 0.0 **** 0.06
8468 H 8.28687818640628 56.45487735001746 15.215123571931258 H 0.0 **** 0.06
8469 H 8.143312934078274 56.77433929296641 16.960911855299912 H 0.0 **** 0.06
8470 H 8.266953457793871 55.099944558967756 16.369741136216078 H 0.0 **** 0.06
8471 C 101.86663108497385 11.521653004233599 62.77638382724404 C 0.0 **** -0.24
8472 H 101.1460547282139 11.971853144683081 63.459620355214334 H 0.0 **** 0.06
8473 H 101.64664394837149 11.837663015968559 61.75680652100089 H 0.0 **** 0.06
8474 H 101.80054674148127 10.435750536672714 62.842951482245404 H 0.0 **** 0.06
8475 H 102.87239549873235 11.842054979321205 63.04746695906564 H 0.0 **** 0.06
8476 C 91.27978376887944 87.21389488766079 12.81448335688215 C 0.0 **** -0.24
8477 H 91.83194197843395 86.71599707321002 12.016507961450333 H 0.0 **** 0.06
8478 H 90.90017901790517 88.1687197736652 12.45058742992434 H 0.0 **** 0.06
8479 H 91.94372496956231 87.38520390753473 13.66241845629208 H 0.0 **** 0.06
8480 H 90.44582314202424 86.58548227707331 13.126535938088683 H 0.0 **** 0.06
8481 C 22.855055279940302 97.60949949500841 7.470647876598662 C 0.0 **** -0.24
8482 H 21.975124777045664 97.48097289415057 6.8400776501328835 H 0.0 **** 0.06
8483 H 22.548096908641156 97.96406630615442 8.45533594335042 H 0.0 **** 0.06
8484 H 23.52500984355177 98.33902872316483 7.015037749158367 H 0.0 **** 0.06
8485 H 23.37148937224427 96.65479535360805 7.572173348950301 H 0.0 **** 0.06
8486 C 37.07530605209092 8.790505532676377 84.95283169516404 C 0.0 **** -0.24
8487 H 38.13861991548916 8.678869716400456 85.16215577917882 H 0.0 **** 0.06
8488 H 36.944824486465336 9.35818992076355 84.03114432596666 H 0.0 **** 0.06
8489 H 36.59698858253134 9.319586907085096 85.77740424985441 H 0.0 **** 0.06
8490 H 36.62097626841418 7.805981738757225 84.84139598655639 H 0.0 **** 0.06
8491 C 106.81486367948361 41.12878291581927 2.7720238868089666 C 0.0 **** -0.24
8492 H 106.30685617754904 41.80029212750702 2.0805195328938026 H 0.0 **** 0.06
8493 H 107.30932198120081 40.33546569515238 2.2106591253814827 H 0.0 **** 0.06
8494 H 106.08650080060886 40.692020658034494 3.455535289130637 H 0.0 **** 0.06
8495 H 107.55690995210196 41.688287521832734 3.3424347471990075 H 0.0 **** 0.06
8496 C 44.917875171983866 116.12976977760178 3.60208805852767 C 0.0 **** -0.24
8497 H 44.120598230724056 115.9962154856143 4.332939118330756 H 0.0 **** 0.06
8498 H 45.573663031986 115.25959742224285 3.616950337315515 H 0.0 **** 0.06
8499 H 45.49241745855255 117.02256359271951 3.8516076211919312 H 0.0 **** 0.06
8500 H 44.484467672581275 116.2420877314716 2.608574519516651 H 0.0 **** 0.06
8501 C 53.12973292042216 24.958880106634354 102.08835433535324 C 0.0 **** -0.24
8502 H 52.7456367216148 24.61312415102998 101.12870935298307 H 0.0 **** 0.06
8503 H 53.39408858650086 24.099823358162666 102.70517535258332 H 0.0 **** 0.06
8504 H 52.365682415701656 25.54858674846588 102.59407206663585 H 0.0 **** 0.06
8505 H 54.01469866529078 25.57411853780036 101.92468425866514 H 0.0 **** 0.06
8506 C 30.321585090121516 107.82017139602999 54.3040222769836 C 0.0 **** -0.24
8507 H 29.58637510512142 108.08852071522404 53.5454239082554 H 0.0 **** 0.06
8508 H 30.054675948012743 106.86017577787692 54.74575577571247 H 0.0 **** 0.06
8509 H 30.338526534252253 108.58582903449889 55.07987597371221 H 0.0 **** 0.06
8510 H 31.30678299261166 107.74722499545709 53.843667554245314 H 0.0 **** 0.06
8511 C 79.22944007652796 81.30674084709932 100.35597453836584 C 0.0 **** -0.24
8512 H 79.51645675258044 80.44111754466059 100.95300074913249 H 0.0 **** 0.06
8513 H 79.34238232893091 81.07220716382298 99.29799698269852 H 0.0 **** 0.06
8514 H 79.8690224972741 82.15167837760225 100.61247698559384 H 0.0 **** 0.06
8515 H 78.19019350064553 81.56240024519323 100.56398999182926 H 0.0 **** 0.06
8516 C 13.244410237198082 44.006767216682846 17.40467206872643 C 0.0 **** -0.24
8517 H 13.564285063817152 43.11321097469991 16.868771986533417 H 0.0 **** 0.06
8518 H 12.512599859929395 44.5478668392596 16.803439634714753 H 0.0 **** 0.06
8519 H 14.106537336517334 44.64610502095792 17.591325578872624 H 0.0 **** 0.06
8520 H 12.793195132228135 43.71894239081517 18.354120516760716 H 0.0 **** 0.06
8521 C 42.70459652074327 13.410864540393646 97.82500121398505 C 0.0 **** -0.24
8522 H 42.71043026878698 13.88568856042447 96.84381993979508 H 0.0 **** 0.06
8523 H 42.33385543356123 14.117874515009376 98.56790334513886 H 0.0 **** 0.06
8524 H 43.717641865603376 13.105623480516215 98.08644446841654 H 0.0 **** 0.06
8525 H 42.05546604570466 12.535268120808269 97.80009863920665 H 0.0 **** 0.06
8526 C 50.91964545762076 70.02253132551454 22.507341297992753 C 0.0 **** -0.24
8527 H 51.53119765355693 70.87749477354686 22.219022060921418 H 0.0 **** 0.06
8528 H 51.496920184328815 69.36790693879175 23.1601899518796 H 0.0 **** 0.06
8529 H 50.61889772943468 69.47433210900823 21.614538973739798 H 0.0 **** 0.06
8530 H 50.03218697821258 70.37275990602114 23.03553920058016 H 0.0 **** 0.06
8531 C 39.01136937073305 43.82890014986728 18.620273742887804 C 0.0 **** -0.24
8532 H 38.78064420802364 43.77131834752157 17.55670109227671 H 0.0 **** 0.06
8533 H 38.08475274940971 43.91273783530997 19.189473653803134 H 0.0 **** 0.06
8534 H 39.63544305561801 44.70161387510015 18.810174516010846 H 0.0 **** 0.06
8535 H 39.544577225883245 42.927695705897435 18.92479232613914 H 0.0 **** 0.06
8536 C 97.40936793817917 100.64880952333323 94.0588109821129 C 0.0 **** -0.24
8537 H 97.61843880464465 100.10637016276948 94.9810102554278 H 0.0 **** 0.06
8538 H 97.4896019230639 101.72046761933194 94.2423730434025 H 0.0 **** 0.06
8539 H 96.40139833588867 100.41209972215574 93.71965134525891 H 0.0 **** 0.06
8540 H 98.12852929263312 100.35562024346243 93.29428071082481 H 0.0 **** 0.06
8541 C 116.31526398699314 40.28537064582798 47.20086409994798 C 0.0 **** -0.24
8542 H 116.51684968698517 41.23989426957809 46.71530113535499 H 0.0 **** 0.06
8543 H 115.37048690202576 40.34504712935643 47.741494811623056 H 0.0 **** 0.06
8544 H 117.12050977630486 40.05614092785481 47.89991460911534 H 0.0 **** 0.06
8545 H 116.25438558883891 39.50005233923872 46.447450173266134 H 0.0 **** 0.06
8546 C 86.92550970053364 78.80885908086364 24.78543950087589 C 0.0 **** -0.24
8547 H 87.78321349152688 79.32609633590411 25.214590237437747 H 0.0 **** 0.06
8548 H 86.11828185674116 78.77495209140514 25.516966042769738 H 0.0 **** 0.06
8549 H 87.21343375076671 77.79355839567864 24.512152384699498 H 0.0 **** 0.06
8550 H 86.58877747611527 79.3418937548168 23.8957940286683 H 0.0 **** 0.06
8551 C 88.88580031006902 47.702251583021564 19.205316718492327 C 0.0 **** -0.24
8552 H 89.33625819436617 47.45191704164877 20.16566866784953 H 0.0 **** 0.06
8553 H 89.63279222097344 48.1716332896265 18.564905532077148 H 0.0 **** 0.06
8554 H 88.05575152160702 48.39157123524862 19.361860728365727 H 0.0 **** 0.06
8555 H 88.51734170147893 46.79302284432738 18.729204353017053 H 0.0 **** 0.06
8556 C 68.78677230537221 87.83204121097887 88.15198768528293 C 0.0 **** -0.24
8557 H 69.72403131230095 88.38861558824959 88.15927440368162 H 0.0 **** 0.06
8558 H 68.99906255523251 86.76315302143038 88.19887644680239 H 0.0 **** 0.06
8559 H 68.2393993326113 88.05442080044799 87.23542738852512 H 0.0 **** 0.06
8560 H 68.18576115757162 88.12218506227512 89.01359878991167 H 0.0 **** 0.06
8561 C 7.210669423715416 57.48476170942356 77.85945786693958 C 0.0 **** -0.24
8562 H 7.0986385339029425 58.5015681457865 78.23245273515656 H 0.0 **** 0.06
8563 H 6.4054674621856975 57.26430252980507 77.15813899412018 H 0.0 **** 0.06
8564 H 7.166846234302113 56.78428276358526 78.69393518417655 H 0.0 **** 0.06
8565 H 8.170687323049151 57.386682373681516 77.35348889885509 H 0.0 **** 0.06
8566 C 39.24082898917467 111.49532523405819 21.64075818724777 C 0.0 **** -0.24
8567 H 39.30368249452343 110.98582593096941 22.602495411370796 H 0.0 **** 0.06
8568 H 38.536864585837606 110.96800017115822 20.996529967448566 H 0.0 **** 0.06
8569 H 40.22471299582929 111.50761189835606 21.17083593683141 H 0.0 **** 0.06
8570 H 38.89798210548648 112.518490467063 21.7935046060702 H 0.0 **** 0.06
8571 C 106.29665880496776 101.67995184644707 94.50009374499143 C 0.0 **** -0.24
8572 H 107.08667054805949 100.9838828201328 94.78174941650428 H 0.0 **** 0.06
8573 H 105.83634897200213 102.08984569499785 95.39853261356376 H 0.0 **** 0.06
8574 H 105.5434285876826 101.15553875079974 93.91192818506829 H 0.0 **** 0.06
8575 H 106.72126749349815 102.48995184574301 93.90629741310823 H 0.0 **** 0.06
8576 C 118.15975169520777 69.82246260245091 47.71174997152427 C 0.0 **** -0.24
8577 H 119.01866126859277 69.54044174938844 47.10324597039802 H 0.0 **** 0.06
8578 H 118.23805740564185 69.34855911685634 48.69123625974331 H 0.0 **** 0.06
8579 H 117.24338295269035 69.49552610094483 47.2218965939415 H 0.0 **** 0.06
8580 H 118.140708257471 70.90623881453473 47.8328372386332 H 0.0 **** 0.06
8581 C 60.347059626342315 115.74590890109835 96.76306371512868 C 0.0 **** -0.24
8582 H 60.833747049363126 115.81358843619071 97.73614152038849 H 0.0 **** 0.06
8583 H 59.858133826315395 116.69391795534702 96.5345290890292 H 0.0 **** 0.06
8584 H 59.60446705162519 114.94880407117009 96.78318027282069 H 0.0 **** 0.06
8585 H 61.09309469735899 115.52855120650105 95.9986208595137 H 0.0 **** 0.06
8586 C 20.88385396137403 90.38109538861264 37.321658124886994 C 0.0 **** -0.24
8587 H 20.616158480256757 91.43702090248675 37.35238233968357 H 0.0 **** 0.06
8588 H 21.96539394980354 90.28378620800405 37.22464897245615 H 0.0 **** 0.06
8589 H 20.397854976194196 89.90804251032364 36.468184899273695 H 0.0 **** 0.06
8590 H 20.55582593537501 89.89651516843699 38.241415815547526 H 0.0 **** 0.06
8591 C 11.320418246795423 16.368064880773616 5.921535182042277 C 0.0 **** -0.24
8592 H 11.301935671010469 17.34745198084752 6.398023149111452 H 0.0 **** 0.06
8593 H 10.579681075955811 15.72026632009328 6.392303858114033 H 0.0 **** 0.06
8594 H 12.311180558929863 15.928735074033867 6.033543557537598 H 0.0 **** 0.06
8595 H 11.087875788138884 16.475045186724344 4.861621111353941 H 0.0 **** 0.06
8596 C 29.239502573078006 29.168254990278555 33.629899082124666 C 0.0 **** -0.24
8597 H 29.335480428586266 30.126827411252577 34.14108868440181 H 0.0 **** 0.06
8598 H 30.16963957331275 28.609846803717893 33.72776090502262 H 0.0 **** 0.06
8599 H 29.026999189328322 29.33950596202321 32.574441357892 H 0.0 **** 0.06
8600 H 28.42364707843499 28.59979914521041 34.076760753673966 H 0.0 **** 0.06
8601 C 97.11377343088043 74.29788129552895 67.72541993757358 C 0.0 **** -0.24
8602 H 97.47613747601656 73.47768354187164 68.34638257909 H 0.0 **** 0.06
8603 H 96.61896790914446 75.03744660843222 68.35399781054747 H 0.0 **** 0.06
8604 H 96.40564440212353 73.91217997983657 66.99175900466065 H 0.0 **** 0.06
8605 H 97.95466607388721 74.76108779452284 67.20988251639938 H 0.0 **** 0.06
8606 C 59.74361842139701 104.95749887675558 75.80308046791282 C 0.0 **** -0.24
8607 H 59.74072586972621 105.0807480294819 74.71993880320582 H 0.0 **** 0.06
8608 H 58.7334435375004 104.73777747871301 76.14670192318462 H 0.0 **** 0.06
8609 H 60.09594951540105 105.87632488624513 76.2726336363416 H 0.0 **** 0.06
8610 H 60.406309110311106 104.13541938511062 76.0727226470311 H 0.0 **** 0.06
8611 C 68.53872428163797 33.98370556557893 88.58165183206208 C 0.0 **** -0.24
8612 H 67.93985937311629 34.53741570047427 89.30482780222187 H 0.0 **** 0.06
8613 H 69.46107379440136 33.64746649238157 89.054884554555 H 0.0 **** 0.06
8614 H 68.7765415666124 34.630030863089274 87.7378384561961 H 0.0 **** 0.06
8615 H 67.97441910285735 33.11919532685704 88.23062856188128 H 0.0 **** 0.06
8616 C 81.70020433446112 3.948771274256501 112.5237867913676 C 0.0 **** -0.24
8617 H 82.13746951166735 4.51923416914407 111.70545818165051 H 0.0 **** 0.06
8618 H 81.32115082523299 2.9999842402201153 112.1441538576218 H 0.0 **** 0.06
8619 H 80.88094922417616 4.517062465552115 112.96524325465504 H 0.0 **** 0.06
8620 H 82.46071279278613 3.758888747473762 113.2824614199737 H 0.0 **** 0.06
8621 C 13.140863414633827 102.7603364867922 10.013875643383841 C 0.0 **** -0.24
8622 H 12.499440290042969 103.56001410119666 10.384672993457599 H 0.0 **** 0.06
8623 H 13.7388308461787 102.36385642667511 10.834963416640988 H 0.0 **** 0.06
8624 H 13.800723275315192 103.15402804877024 9.240803535262842 H 0.0 **** 0.06
8625 H 12.525069684526159 101.9641580123531 9.594712752799381 H 0.0 **** 0.06
8626 C 73.38015101036191 92.10146687989709 62.99776013380625 C 0.0 **** -0.24
8627 H 73.86083642038761 92.87518227019484 63.59485098945521 H 0.0 **** 0.06
8628 H 72.66389480441248 92.56132616787463 62.315894949279794 H 0.0 **** 0.06
8629 H 72.86009854670337 91.4046321695428 63.65557654357062 H 0.0 **** 0.06
8630 H 74.13561003957298 91.56414793078648 62.423438237978075 H 0.0 **** 0.06
8631 C 56.21774393714167 100.20223132301498 58.27586035946081 C 0.0 **** -0.24
8632 H 56.592560967161894 100.37304813552089 57.267090151811146 H 0.0 **** 0.06
8633 H 56.94483686559601 99.61711533528205 58.83903948635162 H 0.0 **** 0.06
8634 H 55.27443749935602 99.65910652079356 58.22513619531907 H 0.0 **** 0.06
8635 H 56.058707583447195 101.16004205660346 58.770543657379164 H 0.0 **** 0.06
8636 C 44.24241956904716 68.5593174629621 118.29121260963194 C 0.0 **** -0.24
8637 H 44.69859645697869 67.65496199014603 118.69444879533359 H 0.0 **** 0.06
8638 H 44.782221503333965 68.87046240173379 117.3970128278302 H 0.0 **** 0.06
8639 H 44.28795089657055 69.35218689044865 119.03852486171292 H 0.0 **** 0.06
8640 H 43.20163138321091 68.3587002932972 118.03699956273286 H 0.0 **** 0.06
8641 C 31.15667198716133 2.294349409731467 77.17770997012934 C 0.0 **** -0.24
8642 H 31.27882797079748 1.6467871884990473 78.0455259709311 H 0.0 **** 0.06
8643 H 30.65095275647137 3.212311799633653 77.47752606546692 H 0.0 **** 0.06
8644 H 30.561262457987425 1.7797443302100646 76.42276643427823 H 0.0 **** 0.06
8645 H 32.135569030286206 2.536707356438967 76.76425771999581 H 0.0 **** 0.06
8646 C 68.39870987965125 88.64524271839667 29.950454587305927 C 0.0 **** -0.24
8647 H 69.4161083660756 88.40837782264569 30.262906108091357 H 0.0 **** 0.06
8648 H 68.30669100183829 89.72186464970619 29.802075343537567 H 0.0 **** 0.06
8649 H 67.69899756721779 88.3227813881374 30.720940075973843 H 0.0 **** 0.06
8650 H 68.17557780840187 88.12863310068755 29.017658214241763 H 0.0 **** 0.06
8651 C 101.72371581221861 74.86816023657735 15.61444893679166 C 0.0 **** -0.24
8652 H 102.77923744684674 74.73244726589002 15.853711839252142 H 0.0 **** 0.06
8653 H 101.59215401649226 74.85213707352949 14.532645670303737 H 0.0 **** 0.06
8654 H 101.38231415549711 75.82444565544233 16.008567667665005 H 0.0 **** 0.06
8655 H 101.14424788412023 74.06176650645591 16.063894861016237 H 0.0 **** 0.06
8656 C 26.89494597791265 15.517225055138852 42.62269679414999 C 0.0 **** -0.24
8657 H 26.090123667174616 16.002187252291066 43.17582004423918 H 0.0 **** 0.06
8658 H 27.75272363378283 15.374260891101983 43.280368709500266 H 0.0 **** 0.06
8659 H 27.18377494855099 16.143343646310626 41.777753021263024 H 0.0 **** 0.06
8660 H 26.551763685076317 14.549069978468737 42.25663492914349 H 0.0 **** 0.06
8661 C 34.61266623036356 75.62250454721618 6.2747649860612285 C 0.0 **** -0.24
8662 H 33.86603214535687 75.13221033321867 6.9008119448504175 H 0.0 **** 0.06
8663 H 34.44794500713494 75.34918905083464 5.232672807310138 H 0.0 **** 0.06
8664 H 35.6084309735968 75.30356568613587 6.5824111095613205 H 0.0 **** 0.06
8665 H 34.52661023884833 76.70298935508293 6.386909874988433 H 0.0 **** 0.06
8666 C 49.296577170013336 70.40344556980699 35.47160419907354 C 0.0 **** -0.24
8667 H 49.66179494017899 69.37948268642899 35.392007905823164 H 0.0 **** 0.06
8668 H 48.88569733881627 70.71879364193745 34.511834432743356 H 0.0 **** 0.06
8669 H 50.11987272369396 71.06215163457193 35.749428545013046 H 0.0 **** 0.06
8670 H 48.51966551472293 70.45343922939972 36.23383278908588 H 0.0 **** 0.06
8671 C 28.205856905872494 109.36401737461037 77.79958262032255 C 0.0 **** -0.24
8672 H 27.381673039716908 108.6716475756337 77.97563282905071 H 0.0 **** 0.06
8673 H 27.95015408439236 110.0310402533696 76.97617073814746 H 0.0 **** 0.06
8674 H 29.104892457387194 108.80136231212916 77.54617783929925 H 0.0 **** 0.06
8675 H 28.38592441515602 109.94971284220094 78.7006065012595 H 0.0 **** 0.06
8676 C 97.47180574782456 18.156894197531926 15.476099233306627 C 0.0 **** -0.24
8677 H 98.09016586787342 18.575824681249827 16.27031306653268 H 0.0 **** 0.06
8678 H 97.2362858884496 17.118742079454563 15.710238383716899 H 0.0 **** 0.06
8679 H 98.0133567808297 18.202675005162945 14.531448427867446 H 0.0 **** 0.06
8680 H 96.54909633675217 18.72991920012811 15.394128734219066 H 0.0 **** 0.06
8681 C 83.96477354449593 110.39379471163807 116.60444688169662 C 0.0 **** -0.24
8682 H 84.64874385534503 110.69477654991611 117.39776087730944 H 0.0 **** 0.06
8683 H 83.83219201891501 109.31199798107491 116.62901440702981 H 0.0 **** 0.06
8684 H 84.37713239157375 110.68828764962682 115.63875814754755 H 0.0 **** 0.06
8685 H 83.0004174601892 110.88152448928406 116.75144911334527 H 0.0 **** 0.06
8686 C 110.42241398282539 8.90287573040024 71.31841855019766 C 0.0 **** -0.24
8687 H 110.18503596894317 9.077612293670967 70.26876078978103 H 0.0 **** 0.06
8688 H 110.87724987268587 9.798356638727682 71.74140058331474 H 0.0 **** 0.06
8689 H 111.11963872708068 8.068568653958124 71.39859933155779 H 0.0 **** 0.06
8690 H 109.50913600748405 8.666515288233114 71.8632328048484 H 0.0 **** 0.06
8691 C 38.3138295998026 38.837767677109866 71.56180436491783 C 0.0 **** -0.24
8692 H 37.65557913623837 38.281080697371635 72.22922742037133 H 0.0 **** 0.06
8693 H 37.71325695291068 39.39520976314378 70.84234523385771 H 0.0 **** 0.06
8694 H 38.964851210574125 38.14287042449473 71.03243382169217 H 0.0 **** 0.06
8695 H 38.91876986213799 39.53147131187629 72.14483014173814 H 0.0 **** 0.06
8696 C 8.680376099639659 88.8841199340304 11.76985007951151 C 0.0 **** -0.24
8697 H 8.00854556807758 89.74278770292281 11.784917098962126 H 0.0 **** 0.06
8698 H 9.628382135004188 89.17425882210253 11.317695783844837 H 0.0 **** 0.06
8699 H 8.229115551465739 88.08120520037204 11.185610824065925 H 0.0 **** 0.06
8700 H 8.852569114180568 88.5398002628693 12.789397564667414 H 0.0 **** 0.06
8701 C 12.222881214092979 22.60251068450242 36.383861387107856 C 0.0 **** -0.24
8702 H 12.601171540504879 23.00112603457933 35.44266332816602 H 0.0 **** 0.06
8703 H 12.793724301097086 23.02371602284694 37.21210523416238 H 0.0 **** 0.06
8704 H 12.326704941916205 21.517230486761207 36.387196903318596 H 0.0 **** 0.06
8705 H 11.171301602402934 22.86697140030276 36.49380411907953 H 0.0 **** 0.06
8706 C 81.9983566929788 76.97514052217699 102.64138788947196 C 0.0 **** -0.24
8707 H 82.64868160988254 77.5167575920085 103.32813603047373 H 0.0 **** 0.06
8708 H 81.99039470264262 75.91764444989619 102.90794803265871 H 0.0 **** 0.06
8709 H 82.36811103717793 77.0911246032532 101.62261755969831 H 0.0 **** 0.06
8710 H 80.98624771616761 77.3753259941841 102.70928218974956 H 0.0 **** 0.06
8711 C 15.12462926366618 86.89929028767926 76.57338893127408 C 0.0 **** -0.24
8712 H 16.171013244634395 87.10422200513571 76.34654285842447 H 0.0 **** 0.06
8713 H 14.491588497662462 87.59477250184219 76.0219875623379 H 0.0 **** 0.06
8714 H 14.953723692521407 87.02092824282826 77.64245674626295 H 0.0 **** 0.06
8715 H 14.883016408775376 85.87775823562396 76.28055614959237 H 0.0 **** 0.06
8716 C 109.29637154001355 1.0829318749966887 68.25522244809855 C 0.0 **** -0.24
8717 H 110.19470522117413 1.6110464552681947 68.57403136285077 H 0.0 **** 0.06
8718 H 108.56243575896033 1.803017016740455 67.8913168071384 H 0.0 **** 0.06
8719 H 108.87836235750126 0.5340207601525719 69.09869470261609 H 0.0 **** 0.06
8720 H 109.54874699116742 0.3848492935440504 67.45698256182649 H 0.0 **** 0.06
8721 C 102.9568589856735 0.2760182097914523 10.037601940511536 C 0.0 **** -0.24
8722 H 103.3917567575615 -0.44884179375561395 9.348548571250177 H 0.0 **** 0.06
8723 H 101.98904489593804 0.6024223595641516 9.65671508296083 H 0.0 **** 0.06
8724 H 103.6202897158957 1.1350770128063647 10.127996091071708 H 0.0 **** 0.06
8725 H 102.82538663121943 -0.18615165440408532 11.015527067706415 H 0.0 **** 0.06
8726 C 28.330386147162415 11.341813320689454 110.08816157023836 C 0.0 **** -0.24
8727 H 27.27211707531859 11.577770978719201 110.1946653592862 H 0.0 **** 0.06
8728 H 28.440441451813754 10.322281067701311 109.71931423702574 H 0.0 **** 0.06
8729 H 28.822602338632663 11.43357801753507 111.05721065422475 H 0.0 **** 0.06
8730 H 28.787067943249554 12.035574816127578 109.38230656152248 H 0.0 **** 0.06
8731 C 51.095146877442716 52.803001508837745 26.220741941508834 C 0.0 **** -0.24
8732 H 50.613624432810624 52.99181116890836 27.179415779150986 H 0.0 **** 0.06
8733 H 50.732992346709935 51.85832343318945 25.81168062274429 H 0.0 **** 0.06
8734 H 52.17482015727364 52.74844784008122 26.3612057899648 H 0.0 **** 0.06
8735 H 50.85865963552641 53.6121901480201 25.529553023433607 H 0.0 **** 0.06
8736 C 99.91785845656511 21.12570641889198 88.53972974902774 C 0.0 **** -0.24
8737 H 100.96463393584185 20.86701820452322 88.69655137740557 H 0.0 **** 0.06
8738 H 99.58212761851823 21.785927017541724 89.33980985235516 H 0.0 **** 0.06
8739 H 99.314751759221 20.216836433932542 88.54155453414421 H 0.0 **** 0.06
8740 H 99.80748037545033 21.631567241694427 87.58007297179444 H 0.0 **** 0.06
8741 C 56.295500543489396 59.384899836379766 14.410093093032827 C 0.0 **** -0.24
8742 H 56.87148321246178 58.64473885701083 13.854444577539937 H 0.0 **** 0.06
8743 H 55.637860625017225 59.92107425555012 13.725468865365116 H 0.0 **** 0.06
8744 H 56.97561356494273 60.08962922676202 14.887953220171681 H 0.0 **** 0.06
8745 H 55.69814611178117 58.88413676312201 15.171168990850475 H 0.0 **** 0.06
8746 C 72.93793446669463 100.36396416218398 69.38825187806461 C 0.0 **** -0.24
8747 H 73.61635940889627 100.79536158363794 68.65294352797005 H 0.0 **** 0.06
8748 H 71.91392176361435 100.65903234700036 69.15484785272554 H 0.0 **** 0.06
8749 H 73.20191108519529 100.72597178578272 70.38219223173792 H 0.0 **** 0.06
8750 H 73.01710568240912 99.27700025521389 69.36390095699946 H 0.0 **** 0.06
8751 C 23.555617009354336 94.06881239522266 87.16145595221121 C 0.0 **** -0.24
8752 H 22.583293365452136 93.60386714104425 87.32659303334685 H 0.0 **** 0.06
8753 H 24.333760212782266 93.45344248887253 87.61385914256311 H 0.0 **** 0.06
8754 H 23.56545517164335 95.05936155441808 87.61523573381135 H 0.0 **** 0.06
8755 H 23.738972877358606 94.15765904604913 86.0912230813878 H 0.0 **** 0.06
8756 C 93.66283034868874 34.643018480312016 36.36221680017826 C 0.0 **** -0.24
8757 H 92.97175403135071 33.957338171003265 35.87133326829803 H 0.0 **** 0.06
8758 H 94.25840798100367 34.096827199587814 37.09404052711767 H 0.0 **** 0.06
8759 H 93.09857593055312 35.42842354004675 36.866351195652726 H 0.0 **** 0.06
8760 H 94.32138392987054 35.08984162799775 35.61780106333333 H 0.0 **** 0.06
8761 C 104.53366484672756 15.849927344705435 63.35961377392582 C 0.0 **** -0.24
8762 H 104.90319228750073 15.734971601565462 64.37838224155178 H 0.0 **** 0.06
8763 H 105.17013526600849 15.286578714933256 62.67674750986617 H 0.0 **** 0.06
8764 H 104.54895064277642 16.90422463773237 63.08425563972586 H 0.0 **** 0.06
8765 H 103.5128784927409 15.472613018755737 63.299151523511306 H 0.0 **** 0.06
8766 C 37.88377812340451 40.58560837765614 111.33745713193798 C 0.0 **** -0.24
8767 H 37.799844919892365 41.66929448923972 111.26270330879555 H 0.0 **** 0.06
8768 H 38.81086023506319 40.3284762235935 111.85065634638109 H 0.0 **** 0.06
8769 H 37.890231040250654 40.15152428065562 110.33644710915124 H 0.0 **** 0.06
8770 H 37.03612416080037 40.19319964841034 111.8979717479244 H 0.0 **** 0.06
8771 C 65.2123350073953 66.7707152574072 115.16589907398729 C 0.0 **** -0.24
8772 H 65.94659896626044 67.40207727662417 115.66737895937173 H 0.0 **** 0.06
8773 H 64.2894955162225 67.33342842539253 115.0217436392084 H 0.0 **** 0.06
8774 H 65.01100914876656 65.89286044822015 115.77874597348452 H 0.0 **** 0.06
8775 H 65.60340740389674 66.45781542592354 114.19866097232679 H 0.0 **** 0.06
8776 C 86.27180941530693 52.36647640266878 94.36546282965571 C 0.0 **** -0.24
8777 H 85.79549536448525 52.838970439701626 95.22558665021859 H 0.0 **** 0.06
8778 H 87.16884855884356 52.9250552635925 94.0962248989523 H 0.0 **** 0.06
8779 H 85.5790930361826 52.36351162247064 93.52380743345782 H 0.0 **** 0.06
8780 H 86.54208635151846 51.34125995563238 94.61787552303463 H 0.0 **** 0.06
8781 C 59.06852902524548 5.297545137804448 103.93068011173438 C 0.0 **** -0.24
8782 H 58.982696307007075 6.21903526207187 103.35516361084055 H 0.0 **** 0.06
8783 H 59.139404053225434 5.537161780849232 104.99187151350097 H 0.0 **** 0.06
8784 H 59.96275724495533 4.75754093302497 103.61976387174482 H 0.0 **** 0.06
8785 H 58.19060780546263 4.676461287313188 103.7554982128631 H 0.0 **** 0.06
8786 C 43.4060860755066 25.873994820633627 69.9457721183378 C 0.0 **** -0.24
8787 H 42.76628771660839 25.845811082410847 69.06371979052074 H 0.0 **** 0.06
8788 H 44.19129236214182 26.615480914211474 69.80129728241559 H 0.0 **** 0.06
8789 H 43.855501713638915 24.893024715919466 70.09883349093559 H 0.0 **** 0.06
8790 H 42.80993554545423 26.140477315818515 70.81788342382322 H 0.0 **** 0.06
8791 C 53.25031887122344 13.243957518163331 79.3016537357565 C 0.0 **** -0.24
8792 H 52.74497632941492 12.369449664756619 79.71213215143786 H 0.0 **** 0.06
8793 H 53.31799000930177 14.017169283653615 80.06751782526396 H 0.0 **** 0.06
8794 H 52.685271141652784 13.623965834600398 78.45067941372963 H 0.0 **** 0.06
8795 H 54.25241066383138 12.96444177001089 78.9772658163212 H 0.0 **** 0.06
8796 C 39.44997989135027 70.74461502651346 11.583856060904594 C 0.0 **** -0.24
8797 H 39.24445772848679 71.80451517322138 11.734739810355109 H 0.0 **** 0.06
8798 H 40.2053176594446 70.62874584461113 10.805834964269593 H 0.0 **** 0.06
8799 H 38.53480310906915 70.23696617565187 11.280515292200505 H 0.0 **** 0.06
8800 H 39.81659276434133 70.31033377241621 12.514192767718953 H 0.0 **** 0.06
8801 C 64.46654228273127 81.8651008017919 18.939888602016936 C 0.0 **** -0.24
8802 H 65.36606954797512 81.9567515554275 18.33184143365898 H 0.0 **** 0.06
8803 H 63.960089591250096 82.82996278112887 18.986565050948855 H 0.0 **** 0.06
8804 H 64.73881392067099 81.54745811386596 19.945637455783583 H 0.0 **** 0.06
8805 H 63.800516267407005 81.12633858485486 18.493382902653337 H 0.0 **** 0.06
8806 C 102.87305404003729 20.95476136832835 22.497016636113244 C 0.0 **** -0.24
8807 H 102.46058983497036 20.982917475649174 21.488707629240025 H 0.0 **** 0.06
8808 H 103.03700452385675 21.97301224034142 22.85018655229476 H 0.0 **** 0.06
8809 H 103.82161449760233 20.41639911927828 22.486162558557567 H 0.0 **** 0.06
8810 H 102.17499454263549 20.446712985073177 23.16198454295977 H 0.0 **** 0.06
8811 C 72.02433071946945 13.968313771998794 12.305314297996745 C 0.0 **** -0.24
8812 H 73.03315972556567 13.81770837543371 11.918211279495836 H 0.0 **** 0.06
8813 H 72.07521323524264 14.504731391645919 13.252420222191176 H 0.0 **** 0.06
8814 H 71.5468445304453 13.000704385996357 12.459682636512952 H 0.0 **** 0.06
8815 H 71.44402779915964 14.550373351062547 11.588253051565147 H 0.0 **** 0.06
8816 C 52.91859414208224 30.6700700140442 87.1290816022198 C 0.0 **** -0.24
8817 H 53.79425231534054 31.25950047572735 87.39930560629341 H 0.0 **** 0.06
8818 H 52.064936544342146 31.333826198798192 86.98313589757441 H 0.0 **** 0.06
8819 H 52.696228331166054 29.96176597029927 87.92693520663778 H 0.0 **** 0.06
8820 H 53.11786000020257 30.126684227037686 86.2053524307835 H 0.0 **** 0.06
8821 C 97.81774843206881 14.413745820350588 103.86815792895871 C 0.0 **** -0.24
8822 H 97.06891003599401 13.623990171451855 103.81207216888001 H 0.0 **** 0.06
8823 H 98.06185095123706 14.75556552472938 102.86235585258501 H 0.0 **** 0.06
8824 H 98.71755236536546 14.026933832036132 104.34867854001294 H 0.0 **** 0.06
8825 H 97.4240958631257 15.246089790896022 104.45101443142477 H 0.0 **** 0.06
8826 C 78.2808408815963 64.61112647973297 10.148674290747579 C 0.0 **** -0.24
8827 H 77.40340452753966 63.97526322755189 10.0297081024043 H 0.0 **** 0.06
8828 H 79.12075090245477 64.00873658054275 10.493790352263773 H 0.0 **** 0.06
8829 H 78.06713865493936 65.39030329212935 10.879699850327228 H 0.0 **** 0.06
8830 H 78.52981657636127 65.06799591453458 9.191732863207193 H 0.0 **** 0.06
8831 C 40.19670489512913 81.86608378475347 72.26050868489793 C 0.0 **** -0.24
8832 H 40.76759414685921 80.94209939036489 72.17414426566683 H 0.0 **** 0.06
8833 H 39.379669133508145 81.85704731430741 71.53883182105486 H 0.0 **** 0.06
8834 H 40.84958091769036 82.71580388322559 72.05896645907654 H 0.0 **** 0.06
8835 H 39.790847040261724 81.95001016194476 73.26813027724148 H 0.0 **** 0.06
8836 C 33.30625524401975 112.0163745373946 86.38867091134296 C 0.0 **** -0.24
8837 H 33.942124394459086 111.95911300366498 87.2719347958375 H 0.0 **** 0.06
8838 H 32.84515604378521 111.04516587366822 86.21050301581772 H 0.0 **** 0.06
8839 H 33.909648910742305 112.29725242729813 85.52503539419178 H 0.0 **** 0.06
8840 H 32.52974988863957 112.76440173247084 86.54745786053905 H 0.0 **** 0.06
8841 C 25.28608786306281 65.00848943684119 116.33541306292038 C 0.0 **** -0.24
8842 H 25.184886731743525 65.43237080678833 115.33605851365127 H 0.0 **** 0.06
8843 H 24.569870327691973 65.4837862321022 117.00615668521301 H 0.0 **** 0.06
8844 H 26.298262076135927 65.1835315100814 116.70166744593698 H 0.0 **** 0.06
8845 H 25.093453273600616 63.93712860378837 116.2971985519092 H 0.0 **** 0.06
8846 C 83.3175577915313 111.84378496004679 70.53770661357254 C 0.0 **** -0.24
8847 H 83.85705368857339 112.62052145954905 69.99623165986696 H 0.0 **** 0.06
8848 H 82.24812955570579 111.94925381677362 70.35527817110977 H 0.0 **** 0.06
8849 H 83.51589773964162 111.94186880767903 71.60579485467389 H 0.0 **** 0.06
8850 H 83.65083683688601 110.8645697058935 70.1945228284788 H 0.0 **** 0.06
8851 C 45.47828330521202 22.034910761663298 69.81821707026003 C 0.0 **** -0.24
8852 H 45.87437789107017 22.42810250772129 68.88159391379031 H 0.0 **** 0.06
8853 H 45.41873429067843 20.947262323759105 69.75917918962068 H 0.0 **** 0.06
8854 H 44.483832926444904 22.444517321505373 69.99340679148983 H 0.0 **** 0.06
8855 H 46.13808314362183 22.317666156651313 70.6385420887247 H 0.0 **** 0.06
8856 C 111.89099559077579 74.3091439392357 105.22282170498616 C 0.0 **** -0.24
8857 H 111.26923095791275 73.43935677747336 105.43566583241275 H 0.0 **** 0.06
8858 H 112.22952450342987 74.75102879351593 106.16048879811095 H 0.0 **** 0.06
8859 H 111.31041435820279 75.04208676584926 104.66387382499505 H 0.0 **** 0.06
8860 H 112.75403341363608 74.00200792876893 104.63225947579818 H 0.0 **** 0.06
8861 C 117.64749184797637 90.34177137207223 40.66158918806343 C 0.0 **** -0.24
8862 H 117.28103483426216 89.44218953479918 40.16746236145184 H 0.0 **** 0.06
8863 H 116.96425874604141 90.62091478817348 41.464021790579295 H 0.0 **** 0.06
8864 H 117.70762329762894 91.15437651150222 39.93694671013549 H 0.0 **** 0.06
8865 H 118.63676827242327 90.15069257008781 41.076607954745896 H 0.0 **** 0.06
8866 C 63.66953187395376 18.188974368643898 46.10118738399993 C 0.0 **** -0.24
8867 H 63.292229293347134 18.25006403045964 45.08013967901381 H 0.0 **** 0.06
8868 H 63.06018981858023 17.487660699753036 46.67147852219264 H 0.0 **** 0.06
8869 H 63.621433713442514 19.173805948886923 46.56473547758702 H 0.0 **** 0.06
8870 H 64.70361253887137 17.844743322767556 46.08567183858615 H 0.0 **** 0.06
8871 C 72.00948581949339 6.199722533208842 1.5111966583173455 C 0.0 **** -0.24
8872 H 72.45080867565213 5.902167007878404 2.4630067666134607 H 0.0 **** 0.06
8873 H 72.70687328201865 6.84241636636375 0.9731827386756322 H 0.0 **** 0.06
8874 H 71.0818921307721 6.741654566149975 1.6952596462137137 H 0.0 **** 0.06
8875 H 71.79927448461927 5.3110156376505415 0.915459414300841 H 0.0 **** 0.06
8876 C 12.52236236923801 113.08491027555766 24.041915866856186 C 0.0 **** -0.24
8877 H 12.247951556641794 113.08198028772058 22.987431329149445 H 0.0 **** 0.06
8878 H 12.519046222481478 114.1102487316734 24.4142540624577 H 0.0 **** 0.06
8879 H 13.518859566545615 112.65903623762166 24.158638627134906 H 0.0 **** 0.06
8880 H 11.804258266153425 112.49065723668467 24.6067462635109 H 0.0 **** 0.06
8881 C 95.77238067795895 110.99171638052204 85.94958656750407 C 0.0 **** -0.24
8882 H 94.77654142160395 111.04523645663895 86.38993457476502 H 0.0 **** 0.06
8883 H 96.29997890342162 110.12453577766064 86.34708436523078 H 0.0 **** 0.06
8884 H 96.32653389543785 111.89797793649834 86.19374382715682 H 0.0 **** 0.06
8885 H 95.68633844145032 110.90060087772315 84.86670232529374 H 0.0 **** 0.06
8886 C 9.360017130793462 81.22769115137726 75.37826222108092 C 0.0 **** -0.24
8887 H 10.402263328775486 81.54296198192824 75.33110584971055 H 0.0 **** 0.06
8888 H 8.964842727139306 81.12720715839023 74.3676986695371 H 0.0 **** 0.06
8889 H 8.779618353780513 81.97172265944201 75.92464029068086 H 0.0 **** 0.06
8890 H 9.294514561816808 80.26783541303206 75.89085071037744 H 0.0 **** 0.06
8891 C 50.37182391422725 59.727302457841155 76.62813303750593 C 0.0 **** -0.24
8892 H 50.79433225357327 60.71841485627025 76.46622743749069 H 0.0 **** 0.06
8893 H 50.99699397759804 59.17571754499209 77.3310804824554 H 0.0 **** 0.06
8894 H 50.33131638906673 59.191026222661186 75.67927973256388 H 0.0 **** 0.06
8895 H 49.365119521252126 59.82279325292016 77.03415557735059 H 0.0 **** 0.06
8896 C 81.95316848338769 54.87608401099328 56.83581192403063 C 0.0 **** -0.24
8897 H 81.1444639395323 54.3104230244511 57.29966884048968 H 0.0 **** 0.06
8898 H 82.87605562330049 54.71328261856641 57.39230773866921 H 0.0 **** 0.06
8899 H 81.70559947597422 55.93769559336309 56.84458806247236 H 0.0 **** 0.06
8900 H 82.08522919461052 54.54248180860489 55.806876518157715 H 0.0 **** 0.06
8901 C 15.90874063415896 41.0788014117457 114.54209929448035 C 0.0 **** -0.24
8902 H 16.354635512418923 42.04618197961949 114.31028863871697 H 0.0 **** 0.06
8903 H 16.674934390011202 40.30429681805708 114.49447162305037 H 0.0 **** 0.06
8904 H 15.123318497261792 40.85785654938965 113.81918919241434 H 0.0 **** 0.06
8905 H 15.482074136944277 41.106870299916665 115.54444772373978 H 0.0 **** 0.06
8906 C 35.728761971103665 53.97191647855496 90.84280799375341 C 0.0 **** -0.24
8907 H 35.492161389646924 54.53570953662998 91.74546526691171 H 0.0 **** 0.06
8908 H 36.66727656101463 53.43593809707332 90.98604603842381 H 0.0 **** 0.06
8909 H 35.826146755900396 54.657892757391465 90.00125209708318 H 0.0 **** 0.06
8910 H 34.92951163770289 53.25905907318159 90.6399267603777 H 0.0 **** 0.06
8911 C 8.993212670823354 24.728812911875508 104.10766130911912 C 0.0 **** -0.24
8912 H 8.387867986013344 23.866290870173316 103.82656135258657 H 0.0 **** 0.06
8913 H 9.297164268377674 24.63428092453873 105.15036727229631 H 0.0 **** 0.06
8914 H 8.40835047479991 25.63912936840285 103.97969384423283 H 0.0 **** 0.06
8915 H 9.87819644154315 24.773051137864087 103.47295644199198 H 0.0 **** 0.06
8916 C 36.58456488183597 79.32659855327788 107.2184801699492 C 0.0 **** -0.24
8917 H 37.447353226029804 79.87497856064346 107.59669996595244 H 0.0 **** 0.06
8918 H 36.45514591250094 78.41087275960919 107.79431651774365 H 0.0 **** 0.06
8919 H 36.74490934502256 79.07770140643265 106.16938320487307 H 0.0 **** 0.06
8920 H 35.691822328983505 79.94524948812858 107.31201810736678 H 0.0 **** 0.06
8921 C 109.51249518327768 100.46513208570863 102.51913908111766 C 0.0 **** -0.24
8922 H 108.79593197504218 101.28516621218299 102.5674068529672 H 0.0 **** 0.06
8923 H 108.98516088931672 99.51580383549711 102.61549785637001 H 0.0 **** 0.06
8924 H 110.2331954844814 100.56526202088443 103.33103111242076 H 0.0 **** 0.06
8925 H 110.03466801710925 100.49595239803514 101.56307674851092 H 0.0 **** 0.06
8926 C 69.96746564179034 67.18883096052568 88.68342348270886 C 0.0 **** -0.24
8927 H 70.45885726349968 67.17921644781802 87.71051269279428 H 0.0 **** 0.06
8928 H 70.4396233929395 66.45541066535256 89.33644434715364 H 0.0 **** 0.06
8929 H 68.91268071121158 66.94004236304144 88.56031116699037 H 0.0 **** 0.06
8930 H 70.05701441887561 68.1810524577082 89.12501271760337 H 0.0 **** 0.06
8931 C 17.35491626233332 60.27885393681453 32.26132163713278 C 0.0 **** -0.24
8932 H 16.941046256000476 59.27548800831957 32.15572777459522 H 0.0 **** 0.06
8933 H 17.50754537805915 60.49880174324082 33.317636858993154 H 0.0 **** 0.06
8934 H 16.66099883602439 61.003517824377354 31.8358014816327 H 0.0 **** 0.06
8935 H 18.307933853121966 60.335137338141834 31.735561041503388 H 0.0 **** 0.06
8936 C 84.78876321038658 101.05952882296992 47.42972040354343 C 0.0 **** -0.24
8937 H 83.74278457008324 101.10542581760996 47.73025596761536 H 0.0 **** 0.06
8938 H 84.91504412802823 100.29122303195246 46.666452460757114 H 0.0 **** 0.06
8939 H 85.40531070619028 100.81659847736839 48.29524891985531 H 0.0 **** 0.06
8940 H 85.09393914393226 102.02572275463035 47.027331868457736 H 0.0 **** 0.06
8941 C 82.28475506537438 76.28920054124353 4.75537503577192 C 0.0 **** -0.24
8942 H 82.48902041917844 77.29429312473852 4.386433129508134 H 0.0 **** 0.06
8943 H 82.84314414867043 76.11942152841468 5.6759945506960605 H 0.0 **** 0.06
8944 H 82.58892631564566 75.55856097759485 4.005854355803393 H 0.0 **** 0.06
8945 H 81.21757258422096 76.18442912866746 4.952288984422722 H 0.0 **** 0.06
8946 C 95.55859643698506 15.719195354612893 26.984021563215265 C 0.0 **** -0.24
8947 H 95.09380065371164 14.832057925289433 27.414899348400127 H 0.0 **** 0.06
8948 H 96.29876472314729 15.418265287226262 26.241816981836905 H 0.0 **** 0.06
8949 H 96.04571126989487 16.29311341845667 27.772813556629956 H 0.0 **** 0.06
8950 H 94.79486504092239 16.333163627418315 26.50720414080689 H 0.0 **** 0.06
8951 C 10.980074451583818 25.355954260978095 46.038537574060896 C 0.0 **** -0.24
8952 H 11.8049940778605 24.656569767625328 45.90172922557227 H 0.0 **** 0.06
8953 H 10.911518942898141 26.010097005327367 45.16977527202621 H 0.0 **** 0.06
8954 H 11.155240155002843 25.95426785724635 46.931915606604555 H 0.0 **** 0.06
8955 H 10.049012009300554 24.800776627451754 46.14956934205127 H 0.0 **** 0.06
8956 C 59.123802396463425 110.2501913026456 90.47618334426625 C 0.0 **** -0.24
8957 H 58.22060410507658 109.66773650015043 90.29621451881974 H 0.0 **** 0.06
8958 H 58.850919110063934 111.27479609317496 90.73041031338869 H 0.0 **** 0.06
8959 H 59.74057084285396 110.25098115809051 89.57679927794482 H 0.0 **** 0.06
8960 H 59.683599803755264 109.80752583523532 91.29966903207952 H 0.0 **** 0.06
8961 C 96.71273286905102 99.43074846530934 100.74177811470327 C 0.0 **** -0.24
8962 H 97.28478516123096 98.5215682213252 100.55588016897778 H 0.0 **** 0.06
8963 H 96.81232394303856 100.10286840547113 99.88967779670551 H 0.0 **** 0.06
8964 H 97.09230030606182 99.92189657145838 101.63865980201786 H 0.0 **** 0.06
8965 H 95.66261652841592 99.17668001558403 100.8837901766424 H 0.0 **** 0.06
8966 C 51.31527401940598 71.0106557234393 94.02953875822809 C 0.0 **** -0.24
8967 H 51.80849993444861 71.1517565475616 93.06731561407778 H 0.0 **** 0.06
8968 H 51.484581175478965 69.99087183806569 94.37740449809769 H 0.0 **** 0.06
8969 H 50.24519049226779 71.18400319123683 93.91810071703108 H 0.0 **** 0.06
8970 H 51.72433631625767 71.71436600105201 94.7542983286773 H 0.0 **** 0.06
8971 C 117.58068142167993 5.07711376679282 33.08100637206692 C 0.0 **** -0.24
8972 H 117.80834404997947 4.147196188099144 32.55969877806811 H 0.0 **** 0.06
8973 H 116.76978383405927 5.593193836047192 32.56518262023937 H 0.0 **** 0.06
8974 H 118.46632398295199 5.712431105481045 33.094261778589754 H 0.0 **** 0.06
8975 H 117.27827381972897 4.855633937544084 34.10488231137043 H 0.0 **** 0.06
8976 C 64.47864496730091 112.46199628667547 66.08772738328196 C 0.0 **** -0.24
8977 H 64.36019815369181 111.49841037346155 66.58133045899604 H 0.0 **** 0.06
8978 H 64.55131858606433 112.31208616787767 65.00990079685755 H 0.0 **** 0.06
8979 H 65.3855518145389 112.94627317573347 66.44959396856416 H 0.0 **** 0.06
8980 H 63.61698768805294 113.09281409933314 66.3096717002175 H 0.0 **** 0.06
8981 C 88.79498716808772 21.275943626816115 87.87763424203297 C 0.0 **** -0.24
8982 H 89.08964313234611 22.272481838251764 88.20561288262073 H 0.0 **** 0.06
8983 H 87.75748115247978 21.295420519822954 87.5421144039367 H 0.0 **** 0.06
8984 H 88.89580951327474 20.5762414523511 88.70648357163054 H 0.0 **** 0.06
8985 H 89.43688761823958 20.96079918157747 87.05442381077856 H 0.0 **** 0.06
8986 C 52.08094842650098 29.964836942609566 112.59414699927676 C 0.0 **** -0.24
8987 H 51.28659682839941 29.708331260041916 111.89297871590581 H 0.0 **** 0.06
8988 H 51.81298132179589 30.878064368813 113.12709068166627 H 0.0 **** 0.06
8989 H 53.01091563292886 30.12132460637622 112.04778067516847 H 0.0 **** 0.06
8990 H 52.21111964985087 29.15156083159951 113.30824573239175 H 0.0 **** 0.06
8991 C 20.72253280812066 22.381554588406775 80.20878520503982 C 0.0 **** -0.24
8992 H 21.522970854484925 21.651932333119184 80.3315568178815 H 0.0 **** 0.06
8993 H 19.758906790008666 21.872903565281028 80.23618228757405 H 0.0 **** 0.06
8994 H 20.838753221297566 22.889838724580102 79.25120248590704 H 0.0 **** 0.06
8995 H 20.771143636049942 23.112088487329956 81.01614371621912 H 0.0 **** 0.06
8996 C 31.406560262472283 27.104821521743588 104.30576461093119 C 0.0 **** -0.24
8997 H 30.59733665999309 27.80543993782436 104.51251466795588 H 0.0 **** 0.06
8998 H 32.037294120333485 27.502811448698992 103.51052161734142 H 0.0 **** 0.06
8999 H 30.987625586153428 26.1485078453523 103.99365337969209 H 0.0 **** 0.06
9000 H 32.0035157406239 26.963485668429655 105.20729661857987 H 0.0 **** 0.06
9001 C 3.4279576523352375 3.9936071686525416 88.64097864333627 C 0.0 **** -0.24
9002 H 2.9355495004674026 3.4309345521382486 89.43399396366925 H 0.0 **** 0.06
9003 H 2.9861160048310182 4.98825423129783 88.57374171122584 H 0.0 **** 0.06
9004 H 3.299745658621873 3.4731624899046842 87.69184082729888 H 0.0 **** 0.06
9005 H 4.491095961730338 4.08297393233841 88.86519753309997 H 0.0 **** 0.06
9006 C 108.7097952037403 8.593706402131975 64.78690118721869 C 0.0 **** -0.24
9007 H 108.31126049671295 9.442021037325624 65.34317713043055 H 0.0 **** 0.06
9008 H 108.59328702839645 7.684153009821731 65.3782870062955 H 0.0 **** 0.06
9009 H 109.76734805320919 8.758997101644386 64.58004483752288 H 0.0 **** 0.06
9010 H 108.16784413701049 8.488649254189973 63.84739090699904 H 0.0 **** 0.06
9011 C 82.50893567035496 62.88387973847025 85.17970951207639 C 0.0 **** -0.24
9012 H 81.75972816557854 63.261563901977006 84.4844525006259 H 0.0 **** 0.06
9013 H 82.09560301795324 62.0432297964846 85.73725716016003 H 0.0 **** 0.06
9014 H 82.79401874907211 63.67502077171364 85.87236166511346 H 0.0 **** 0.06
9015 H 83.38682591500114 62.55355449784833 84.6236757232227 H 0.0 **** 0.06
9016 C 101.68941986927584 50.15152029374544 58.14689945090891 C 0.0 **** -0.24
9017 H 102.63938923440355 50.429889971341645 57.691686268548644 H 0.0 **** 0.06
9018 H 101.30817495586885 50.98826804604012 58.731516449975224 H 0.0 **** 0.06
9019 H 101.8371714387851 49.289816133630026 58.797768851871815 H 0.0 **** 0.06
9020 H 100.97269197337698 49.89795375338257 57.36491941076698 H 0.0 **** 0.06
9021 C 70.9730706002359 100.27195853034655 87.6760807263586 C 0.0 **** -0.24
9022 H 70.26187821413413 101.04375450613534 87.38193973311238 H 0.0 **** 0.06
9023 H 70.75745774395065 99.35206443348815 87.13173931819514 H 0.0 **** 0.06
9024 H 70.88789221899918 100.08871956272401 88.7467859345852 H 0.0 **** 0.06
9025 H 71.98505422385963 100.60329561903856 87.44385791954176 H 0.0 **** 0.06
9026 C 50.80526679370462 89.30471509837287 32.17734661976624 C 0.0 **** -0.24
9027 H 51.24655347164776 90.2015818978856 32.6127103904533 H 0.0 **** 0.06
9028 H 51.01906652342922 88.4476768804193 32.81695650819948 H 0.0 **** 0.06
9029 H 51.22910430620641 89.13426026286652 31.187687343947687 H 0.0 **** 0.06
9030 H 49.725648728760575 89.43552830520008 32.09272741285302 H 0.0 **** 0.06
9031 C 90.704150128451 101.69665334776795 36.873971804884405 C 0.0 **** -0.24
9032 H 90.57688371862213 100.73360466090068 36.379200061827305 H 0.0 **** 0.06
9033 H 91.19432953734866 102.39302059801147 36.19238727879886 H 0.0 **** 0.06
9034 H 91.31710114407844 101.56819601703347 37.766239337876414 H 0.0 **** 0.06
9035 H 89.72816296338115 102.09136523822127 37.157164623264634 H 0.0 **** 0.06
9036 C 91.68169677431803 75.64094771954603 28.472279961440393 C 0.0 **** -0.24
9037 H 90.75173264421778 76.15467056401255 28.716401117646598 H 0.0 **** 0.06
9038 H 91.49238381023628 74.89662062100118 27.698768264104075 H 0.0 **** 0.06
9039 H 92.06863242387368 75.14829483234021 29.364436069213298 H 0.0 **** 0.06
9040 H 92.41113592691795 76.36456549334918 28.11107877624721 H 0.0 **** 0.06
9041 C 116.34515557955041 62.809413628115884 103.15045353582636 C 0.0 **** -0.24
9042 H 116.70450762297406 63.81872231478348 103.35065504021048 H 0.0 **** 0.06
9043 H 115.6039033508078 62.5323300585707 103.90040382116723 H 0.0 **** 0.06
9044 H 117.18075211888885 62.11143547667199 103.19080734104841 H 0.0 **** 0.06
9045 H 115.89047479402626 62.77616186565127 102.16014939135263 H 0.0 **** 0.06
9046 C 57.443911845920546 76.01803259989325 61.44191390747963 C 0.0 **** -0.24
9047 H 56.36518064022645 76.15545732298713 61.51509852923013 H 0.0 **** 0.06
9048 H 57.65593098658311 75.03845073460951 61.013494929320444 H 0.0 **** 0.06
9049 H 57.88574988322399 76.08426970691863 62.43583509533073 H 0.0 **** 0.06
9050 H 57.86579176792622 76.79381383867579 60.803355891846564 H 0.0 **** 0.06
9051 C 50.823046062122444 31.2568198629424 44.37242933989003 C 0.0 **** -0.24
9052 H 51.39131003092933 31.670121813755188 43.53976610183611 H 0.0 **** 0.06
9053 H 50.922713855175004 30.170894561136286 44.37529325101866 H 0.0 **** 0.06
9054 H 49.772419252253655 31.52547848968426 44.26545093549086 H 0.0 **** 0.06
9055 H 51.20770500665208 31.659475584042937 45.30986279414296 H 0.0 **** 0.06
9056 C 71.55267333675073 101.68979073014697 48.39495573395982 C 0.0 **** -0.24
9057 H 71.06992153173223 100.73968637937008 48.62444212725751 H 0.0 **** 0.06
9058 H 72.63459600933578 101.57307569466366 48.46290086511178 H 0.0 **** 0.06
9059 H 71.22268870577011 102.44613891140295 49.10648302773197 H 0.0 **** 0.06
9060 H 71.28409935191218 101.99967956574886 47.3854620772249 H 0.0 **** 0.06
9061 C 105.97092078575835 50.18301395604331 75.63835193859137 C 0.0 **** -0.24
9062 H 105.27916648570724 50.131028920893044 76.4794614131547 H 0.0 **** 0.06
9063 H 106.91672204239816 49.71703534064784 75.9155928224676 H 0.0 **** 0.06
9064 H 106.14220068035942 51.22646296611299 75.37239146308849 H 0.0 **** 0.06
9065 H 105.54306840074611 49.65634908891985 74.78446839360527 H 0.0 **** 0.06
9066 C 23.26230583759275 40.70799927297685 116.87289972637035 C 0.0 **** -0.24
9067 H 24.212687247497144 40.33078041300968 116.49524289931345 H 0.0 **** 0.06
9068 H 23.41597469991305 41.68701799383098 117.32650944806709 H 0.0 **** 0.06
9069 H 22.86835130838702 40.018601196764905 117.61972882177818 H 0.0 **** 0.06
9070 H 22.553855862633384 40.79561643389917 116.04898137247632 H 0.0 **** 0.06
9071 C 68.40677173370449 92.17105320910025 117.16265540700653 C 0.0 **** -0.24
9072 H 69.4434699500402 91.99732100151087 116.87398863298976 H 0.0 **** 0.06
9073 H 68.35031792303684 93.05635178515269 117.79746252274137 H 0.0 **** 0.06
9074 H 68.03207137813104 91.30662224260794 117.71047225228087 H 0.0 **** 0.06
9075 H 67.80175786366766 92.3252159604024 116.26888213386113 H 0.0 **** 0.06
9076 C 7.010946402519082 69.51900630635214 57.5234880849315 C 0.0 **** -0.24
9077 H 6.365058387388572 70.35424548025884 57.25135795555855 H 0.0 **** 0.06
9078 H 7.212704005900605 69.5502936893217 58.59422873623561 H 0.0 **** 0.06
9079 H 7.949543349382282 69.5921239050495 56.97456811874446 H 0.0 **** 0.06
9080 H 6.515979973849426 68.58096680862292 57.27337877471251 H 0.0 **** 0.06
9081 C 36.41159985436841 27.024725416301948 50.127595644987764 C 0.0 **** -0.24
9082 H 35.44146730689287 27.24257201717697 50.57479280189665 H 0.0 **** 0.06
9083 H 37.113480916225555 27.820823823907517 50.37810299372711 H 0.0 **** 0.06
9084 H 36.306079473752156 26.959502178405245 49.04537438329527 H 0.0 **** 0.06
9085 H 36.78474712841624 26.07621004602163 50.51447198465303 H 0.0 **** 0.06
9086 C 117.95568503219035 84.79473016403188 75.73042361191611 C 0.0 **** -0.24
9087 H 118.17537200912744 85.86168409057274 75.74218980336974 H 0.0 **** 0.06
9088 H 117.14179575536039 84.59935201350982 75.03208400814759 H 0.0 **** 0.06
9089 H 117.66185310078652 84.47378617979865 76.73001220164639 H 0.0 **** 0.06
9090 H 118.8429485306598 84.24426380155927 75.41858262408007 H 0.0 **** 0.06
9091 C 104.90420509778795 105.47381269013744 91.86876832297227 C 0.0 **** -0.24
9092 H 105.63719390677466 105.82281701999543 91.14107677933958 H 0.0 **** 0.06
9093 H 105.40843709018992 105.23727875970471 92.80670034232534 H 0.0 **** 0.06
9094 H 104.4091357987229 104.58160423069523 91.48642819030476 H 0.0 **** 0.06
9095 H 104.1638965689337 106.25514149226262 92.04059716691057 H 0.0 **** 0.06
9096 C 13.265485029384365 26.6792716049128 75.4453561128035 C 0.0 **** -0.24
9097 H 13.486150332515876 26.510461600485144 76.49890892146621 H 0.0 **** 0.06
9098 H 13.83530742449176 25.975175770878366 74.83826211926794 H 0.0 **** 0.06
9099 H 13.540626738278917 27.69888985998972 75.1752038684775 H 0.0 **** 0.06
9100 H 12.199773563531068 26.532325042320053 75.27001830440165 H 0.0 **** 0.06
9101 C 25.42648171490322 114.0739088701241 26.408468591922286 C 0.0 **** -0.24
9102 H 25.463072043067314 113.7521460399779 25.36723208979933 H 0.0 **** 0.06
9103 H 25.451852594311788 113.20022244865355 27.059140460313728 H 0.0 **** 0.06
9104 H 24.505546387397658 114.63142696818564 26.583600973130643 H 0.0 **** 0.06
9105 H 26.283459571600417 114.71199664816947 26.621453195073855 H 0.0 **** 0.06
9106 C 89.08489783000485 41.44867693428748 116.21289607240703 C 0.0 **** -0.24
9107 H 89.6462310592656 42.32404563984125 116.53869688530631 H 0.0 **** 0.06
9108 H 88.01960660639892 41.62474892073849 116.36310543197578 H 0.0 **** 0.06
9109 H 89.39649183425274 40.581232515998764 116.79574767881087 H 0.0 **** 0.06
9110 H 89.279081860475 41.265500721666335 115.1562738202409 H 0.0 **** 0.06
9111 C 20.54285286337901 44.648046888670166 68.17191003337723 C 0.0 **** -0.24
9112 H 20.758216272339666 45.07863669543519 69.1496684759054 H 0.0 **** 0.06
9113 H 20.900351317291467 43.618637930435284 68.14199953720936 H 0.0 **** 0.06
9114 H 21.04482175855611 45.23011464904184 67.39982529135295 H 0.0 **** 0.06
9115 H 19.466441449655207 44.66453239864984 67.99680334297767 H 0.0 **** 0.06
9116 C 24.641850232295894 45.34788068063864 18.943212761373672 C 0.0 **** -0.24
9117 H 23.59009541551893 45.30700253924232 18.658105039192094 H 0.0 **** 0.06
9118 H 24.765326149841997 46.04126904018281 19.7752643607206 H 0.0 **** 0.06
9119 H 25.23481848850912 45.688825201381576 18.09439943445949 H 0.0 **** 0.06
9120 H 24.975650422832985 44.354778040292445 19.24431102009902 H 0.0 **** 0.06
9121 C 79.83571646423016 1.4553043696053862 68.78887759037858 C 0.0 **** -0.24
9122 H 80.88946315140203 1.1815137538407896 68.7473188754129 H 0.0 **** 0.06
9123 H 79.37442741299029 1.2759922328011157 67.81739409889863 H 0.0 **** 0.06
9124 H 79.74563350294426 2.5115275354479536 69.04438357099335 H 0.0 **** 0.06
9125 H 79.33309166126148 0.8546206613977176 69.54639782889032 H 0.0 **** 0.06
9126 C 24.416929861841027 3.1053300257199794 103.74975573373862 C 0.0 **** -0.24
9127 H 25.166942540595073 3.4745812980610253 104.44863555297098 H 0.0 **** 0.06
9128 H 23.45507660676367 3.0275492864816442 104.2580185848829 H 0.0 **** 0.06
9129 H 24.71468832974176 2.1230856743250115 103.38231795675026 H 0.0 **** 0.06
9130 H 24.33018202199503 3.795935568172922 102.91118353017166 H 0.0 **** 0.06
9131 C 89.04946808309839 89.00272772135122 78.64162731923756 C 0.0 **** -0.24
9132 H 89.05226057203382 90.08833302433186 78.73961150168032 H 0.0 **** 0.06
9133 H 89.53506010261387 88.55863177537583 79.51106092760472 H 0.0 **** 0.06
9134 H 89.5911791539557 88.71905087263701 77.73923929972372 H 0.0 **** 0.06
9135 H 88.0220296489542 88.64628540676404 78.57668396592965 H 0.0 **** 0.06
9136 C 9.387473389993573 5.348368089361827 15.218768658638083 C 0.0 **** -0.24
9137 H 10.314642621771299 5.91484924520951 15.30781868203303 H 0.0 **** 0.06
9138 H 9.074416590862768 5.326073448331599 14.174422441772492 H 0.0 **** 0.06
9139 H 8.613059857955179 5.8233443735090304 15.82099351177689 H 0.0 **** 0.06
9140 H 9.549637485761593 4.3298539394697855 15.57216974601711 H 0.0 **** 0.06
9141 C 8.421343045189161 42.78907970293932 28.86452504849106 C 0.0 **** -0.24
9142 H 8.06449499582942 42.78459891707698 27.834516324372572 H 0.0 **** 0.06
9143 H 8.754411882102602 41.788580790800296 29.138544358933103 H 0.0 **** 0.06
9144 H 7.612200372452122 43.09799408462047 29.527699020195598 H 0.0 **** 0.06
9145 H 9.252978656390269 43.4876631233071 28.957412042649025 H 0.0 **** 0.06
9146 C 5.075029514156014 33.9864054612254 60.98369689315774 C 0.0 **** -0.24
9147 H 5.87355164002939 33.37715848889661 60.56131429511373 H 0.0 **** 0.06
9148 H 5.252125300863739 34.13079904351179 62.049315551324696 H 0.0 **** 0.06
9149 H 4.119328589925772 33.48385422967807 60.83858829070948 H 0.0 **** 0.06
9150 H 5.055113261558404 34.954912756367136 60.48423366373237 H 0.0 **** 0.06
9151 C 64.67187120277256 50.414246481828556 86.53101670299628 C 0.0 **** -0.24
9152 H 64.83544408310388 49.43489136171199 86.98185047691896 H 0.0 **** 0.06
9153 H 63.82528669327103 50.900347867930265 87.01570079511822 H 0.0 **** 0.06
9154 H 64.46297232937965 50.29450321325791 85.46842067433857 H 0.0 **** 0.06
9155 H 65.56539334518502 51.026577905363666 86.65981532277931 H 0.0 **** 0.06
9156 C 86.64104092881038 87.09905305318736 68.95877461621836 C 0.0 **** -0.24
9157 H 86.68605121244354 86.00985962563573 68.96874167939217 H 0.0 **** 0.06
9158 H 87.57028564038683 87.50532360069616 69.35833197508714 H 0.0 **** 0.06
9159 H 85.80415574913289 87.43377829266166 69.57136971511983 H 0.0 **** 0.06
9160 H 86.50288701861217 87.44653975252274 67.9344459982944 H 0.0 **** 0.06
9161 C 44.79056487237164 117.19687317521417 100.37765779626437 C 0.0 **** -0.24
9162 H 44.45149346027829 118.06893056560119 99.81898524160408 H 0.0 **** 0.06
9163 H 44.23752249754159 117.12872383142637 101.31480581313437 H 0.0 **** 0.06
9164 H 45.85555327023167 117.29262064380508 100.58892705113695 H 0.0 **** 0.06
9165 H 44.6172521780968 116.29772803752145 99.78717304110367 H 0.0 **** 0.06
9166 C 13.25061199024509 62.37600119598545 81.22041467401456 C 0.0 **** -0.24
9167 H 12.902825325536341 63.176777122704095 81.87294276820575 H 0.0 **** 0.06
9168 H 13.578637644004033 62.79854127026675 80.27042011810909 H 0.0 **** 0.06
9169 H 12.43766896399913 61.671833270899356 81.04448936668805 H 0.0 **** 0.06
9170 H 14.083769301791165 61.85768118563425 81.69525869147148 H 0.0 **** 0.06
9171 C 69.70641034542399 67.61727317762626 105.28126050276123 C 0.0 **** -0.24
9172 H 69.47351327063288 67.49683395322424 106.33976415315624 H 0.0 **** 0.06
9173 H 70.35149171297141 66.79992163583572 104.95761238406655 H 0.0 **** 0.06
9174 H 70.21696835058933 68.56717000219143 105.12775146822003 H 0.0 **** 0.06
9175 H 68.78285687611492 67.6024889430548 104.70325623327813 H 0.0 **** 0.06
9176 C 26.470557052592 106.81244775848458 116.88988349820583 C 0.0 **** -0.24
9177 H 27.462130463617143 107.26322616790154 116.84584283097368 H 0.0 **** 0.06
9178 H 26.48996225525744 105.96014809985905 117.57042549262756 H 0.0 **** 0.06
9179 H 26.181177945721657 106.47604598989122 115.89448150398609 H 0.0 **** 0.06
9180 H 25.751680501090647 107.54823737466799 117.24897075185272 H 0.0 **** 0.06
9181 C 103.86338073722087 111.22870640327989 46.452405529409134 C 0.0 **** -0.24
9182 H 103.8791847966811 110.98541711756678 45.38956067641186 H 0.0 **** 0.06
9183 H 103.77880837749802 110.31060894476317 47.03364827553003 H 0.0 **** 0.06
9184 H 103.01074745174586 111.87442120387655 46.66487553420359 H 0.0 **** 0.06
9185 H 104.7850786120801 111.74486240485743 46.72071424869944 H 0.0 **** 0.06
9186 C 47.734040625756336 40.975927719941865 107.79330204910679 C 0.0 **** -0.24
9187 H 46.66769807065663 41.04227671400639 108.01011062447719 H 0.0 **** 0.06
9188 H 47.87566258184569 40.64863866620112 106.76371008368787 H 0.0 **** 0.06
9189 H 48.19852124419464 40.25847748132702 108.4705047785059 H 0.0 **** 0.06
9190 H 48.19408023352605 41.95471157190957 107.93107479986278 H 0.0 **** 0.06
9191 C 50.40283771263745 67.69303478183582 71.93947958109678 C 0.0 **** -0.24
9192 H 50.560092577898416 66.62024161448636 72.04519722314504 H 0.0 **** 0.06
9193 H 49.72752567679123 68.04000894338901 72.72314679316122 H 0.0 **** 0.06
9194 H 49.964117984319984 67.90131972255608 70.96393105822591 H 0.0 **** 0.06
9195 H 51.357587715950785 68.2105203604172 72.02658645509322 H 0.0 **** 0.06
9196 C 60.66981557849372 116.7076267983772 51.879117267083814 C 0.0 **** -0.24
9197 H 60.852170945791094 116.00624638361705 51.065460366614275 H 0.0 **** 0.06
9198 H 59.60406870370986 116.72555946383271 52.110488569207234 H 0.0 **** 0.06
9199 H 60.99373645219615 117.70444005909911 51.57966749231076 H 0.0 **** 0.06
9200 H 61.22746498929923 116.39367036766924 52.76143073663707 H 0.0 **** 0.06
9201 C 47.12209150222765 11.867029205939762 30.64361482071294 C 0.0 **** -0.24
9202 H 46.68894076504493 11.105546345957606 29.995130544499034 H 0.0 **** 0.06
9203 H 46.829420976399106 12.85538131535414 30.289522139088348 H 0.0 **** 0.06
9204 H 48.208976721762546 11.781918823928027 30.62645801826926 H 0.0 **** 0.06
9205 H 46.762116335193745 11.723614706340125 31.66231238008544 H 0.0 **** 0.06
9206 C 36.076274202345076 68.46187439730159 83.38319829301827 C 0.0 **** -0.24
9207 H 36.961924403250464 67.85483873619975 83.19620369047402 H 0.0 **** 0.06
9208 H 36.374182854637695 69.49731321012592 83.55328229900039 H 0.0 **** 0.06
9209 H 35.55590833173187 68.08373415302799 84.26372991901644 H 0.0 **** 0.06
9210 H 35.41198770617052 68.41225599298295 82.52075583026226 H 0.0 **** 0.06
9211 C 45.73933644125129 13.665539849212752 76.89702709514415 C 0.0 **** -0.24
9212 H 45.39402847964289 12.946150230777718 77.63991846649128 H 0.0 **** 0.06
9213 H 45.4384084947625 14.669192870192258 77.19639061694335 H 0.0 **** 0.06
9214 H 45.298765776800096 13.427384333593885 75.92882721041588 H 0.0 **** 0.06
9215 H 46.82621274232058 13.61805482588873 76.8232863324751 H 0.0 **** 0.06
9216 C 9.305198198144979 30.95234011227933 71.37455195881012 C 0.0 **** -0.24
9217 H 8.516094782894811 30.96178170491828 72.1265162084145 H 0.0 **** 0.06
9218 H 9.296910945829893 29.99552359518978 70.85212582401641 H 0.0 **** 0.06
9219 H 10.271040918396693 31.094062040919937 71.86038562869601 H 0.0 **** 0.06
9220 H 9.136276946280589 31.758177277650987 70.66083731302717 H 0.0 **** 0.06
9221 C 100.04084926331143 107.1808788563329 73.46487406420533 C 0.0 **** -0.24
9222 H 100.78532382138727 107.3390594240895 74.24490937565244 H 0.0 **** 0.06
9223 H 99.82553027581608 108.12847583180107 72.9708181038358 H 0.0 **** 0.06
9224 H 99.12800454178839 106.78580581366731 73.90835828509648 H 0.0 **** 0.06
9225 H 100.42747799987364 106.47009224676569 72.73332414237302 H 0.0 **** 0.06
9226 C 46.94209427546275 28.793178565587425 98.22260393635946 C 0.0 **** -0.24
9227 H 47.957402661142225 28.412675158649677 98.33334957536943 H 0.0 **** 0.06
9228 H 46.432861235140535 28.75558285671832 99.18597452146167 H 0.0 **** 0.06
9229 H 46.40119941772218 28.18268950750985 97.50043265783239 H 0.0 **** 0.06
9230 H 46.97821154561069 29.825191936079364 97.87142362977644 H 0.0 **** 0.06
9231 C 32.70234757656817 36.0485572089498 31.016122936758016 C 0.0 **** -0.24
9232 H 33.46481528894478 36.576019095137724 31.589608364887667 H 0.0 **** 0.06
9233 H 32.23104977739578 35.29380816694655 31.64646244485384 H 0.0 **** 0.06
9234 H 33.16480932386182 35.56633061060214 30.154813921962855 H 0.0 **** 0.06
9235 H 31.948855282056712 36.758366015446484 30.67498311065838 H 0.0 **** 0.06
9236 C 25.66185918313579 72.62015665580282 46.5708899255676 C 0.0 **** -0.24
9237 H 24.836285073215123 72.7693940310885 45.8745464748784 H 0.0 **** 0.06
9238 H 26.57688942335247 72.42363250787082 46.011969091065936 H 0.0 **** 0.06
9239 H 25.44176878030936 71.77171621069525 47.219081729654874 H 0.0 **** 0.06
9240 H 25.791538588743748 73.51614837601005 47.177827032482895 H 0.0 **** 0.06
9241 C 37.25100655332436 92.27456232899993 111.55504323476134 C 0.0 **** -0.24
9242 H 37.391502649139085 91.21329052195284 111.75924790273962 H 0.0 **** 0.06
9243 H 37.01930677449318 92.41388085535868 110.49897309216006 H 0.0 **** 0.06
9244 H 38.166033369095885 92.81549886651368 111.80085472202049 H 0.0 **** 0.06
9245 H 36.429578868286924 92.65562122279772 112.16160752096407 H 0.0 **** 0.06
9246 C 75.82469180605341 43.81087683737377 34.459315104006976 C 0.0 **** -0.24
9247 H 75.87651216816539 44.86144303954242 34.174569891203475 H 0.0 **** 0.06
9248 H 76.63242513568306 43.26266184497325 33.97450302242595 H 0.0 **** 0.06
9249 H 74.86558648973335 43.39679745251499 34.14731052237167 H 0.0 **** 0.06
9250 H 75.92361195390953 43.722161197475174 35.54151284476325 H 0.0 **** 0.06
9251 C 111.39278551447161 88.24575636359066 82.71724129381096 C 0.0 **** -0.24
9252 H 110.75128947191249 87.42722908050484 82.3929583938802 H 0.0 **** 0.06
9253 H 112.28151067008706 87.84257651433262 83.20229402330577 H 0.0 **** 0.06
9254 H 110.84859681339725 88.87614197779084 83.42083438052038 H 0.0 **** 0.06
9255 H 111.68889429595548 88.83934357648934 81.85250008285237 H 0.0 **** 0.06
9256 C 39.85575797047787 12.8177422035591 94.47409503123407 C 0.0 **** -0.24
9257 H 39.7879762839805 13.31365613190248 95.4424310233151 H 0.0 **** 0.06
9258 H 38.88302417991997 12.846149769983505 93.9833847957176 H 0.0 **** 0.06
9259 H 40.16025449436188 11.780872390800038 94.61854731256895 H 0.0 **** 0.06
9260 H 40.591091562411435 13.329196824472422 93.85409892945896 H 0.0 **** 0.06
9261 C 43.43715760190224 9.965372898568944 70.29633484900151 C 0.0 **** -0.24
9262 H 42.766203758633196 10.627261533216654 70.84366649418865 H 0.0 **** 0.06
9263 H 43.288150009153355 10.101580578975316 69.22517856907382 H 0.0 **** 0.06
9264 H 43.22627772148479 8.930296682287548 70.5651888496875 H 0.0 **** 0.06
9265 H 44.46962522729808 10.204255754676566 70.55323796008673 H 0.0 **** 0.06
9266 C 85.4284611952794 85.1496636540659 38.333705843874846 C 0.0 **** -0.24
9267 H 85.71801531269014 84.13627828852344 38.055619374495215 H 0.0 **** 0.06
9268 H 86.32345920196249 85.75138200595123 38.49582073011671 H 0.0 **** 0.06
9269 H 84.83925979844895 85.12000798814049 39.2516796874971 H 0.0 **** 0.06
9270 H 84.83346458126303 85.58951098331755 37.53447820603003 H 0.0 **** 0.06
9271 C 40.49311010023209 65.97945563930912 32.50355168006007 C 0.0 **** -0.24
9272 H 40.355311266684424 67.06055608933033 32.48825914289422 H 0.0 **** 0.06
9273 H 41.51852673755579 65.74870366974505 32.79420763186474 H 0.0 **** 0.06
9274 H 40.29550784962558 65.5741880210733 31.511599046125127 H 0.0 **** 0.06
9275 H 39.8027609281921 65.53621635703578 33.22084624748166 H 0.0 **** 0.06
9276 C 59.48761276088592 85.07844203282718 50.549353824815 C 0.0 **** -0.24
9277 H 59.086629303728415 85.91890446717673 51.116054579336975 H 0.0 **** 0.06
9278 H 59.072568083077726 84.14783286980162 50.93724956951769 H 0.0 **** 0.06
9279 H 60.5728791864083 85.06054459244154 50.64425893306007 H 0.0 **** 0.06
9280 H 59.21677040214277 85.18636608709176 49.498298888506326 H 0.0 **** 0.06
9281 C 35.04916414418733 30.03467312742856 48.99112489395075 C 0.0 **** -0.24
9282 H 35.474729261961954 30.07723022592228 49.99429629579021 H 0.0 **** 0.06
9283 H 35.743529957584485 29.52545073082564 48.32299375229038 H 0.0 **** 0.06
9284 H 34.871853756933206 31.04782345907745 48.629473077235495 H 0.0 **** 0.06
9285 H 34.105841822771936 29.489650491438567 49.02005364064249 H 0.0 **** 0.06
9286 C 104.61197425931559 51.11905552046085 46.587980531282625 C 0.0 **** -0.24
9287 H 105.5027805054932 50.962558877706584 47.19498671494125 H 0.0 **** 0.06
9288 H 104.89909690795994 51.21469496663832 45.540176479547114 H 0.0 **** 0.06
9289 H 104.10749279307188 52.02927704950571 46.91156323253995 H 0.0 **** 0.06
9290 H 103.93851394073778 50.269188153305436 46.703873991981936 H 0.0 **** 0.06
9291 C 118.24566465899085 44.10551488672635 3.715880690234737 C 0.0 **** -0.24
9292 H 117.66648711475285 43.6211846707461 4.5023902029820935 H 0.0 **** 0.06
9293 H 118.42545625894083 43.395201372955 2.908391179946154 H 0.0 **** 0.06
9294 H 119.19987726240778 44.44228400648219 4.123419092252949 H 0.0 **** 0.06
9295 H 117.69231232736918 44.961702652287684 3.332147471683296 H 0.0 **** 0.06
9296 C 39.7737346613377 98.03312712360321 16.79964877568429 C 0.0 **** -0.24
9297 H 40.67264633129071 98.506781744817 16.404036939000008 H 0.0 **** 0.06
9298 H 39.85071616068413 96.95241057882251 16.68056827764441 H 0.0 **** 0.06
9299 H 38.902481453541014 98.39819096241959 16.256850705316864 H 0.0 **** 0.06
9300 H 39.67125931665831 98.27563170617617 17.856897961467254 H 0.0 **** 0.06
9301 C 42.551294558014206 99.41204349180637 113.41478072790814 C 0.0 **** -0.24
9302 H 43.34386327669705 99.81938081890269 112.78752028385632 H 0.0 **** 0.06
9303 H 42.80314195863315 98.39134822768332 113.70111197458263 H 0.0 **** 0.06
9304 H 41.61256053941145 99.41302427148031 112.85969143557413 H 0.0 **** 0.06
9305 H 42.445284077764484 100.02536377618782 114.30979782089726 H 0.0 **** 0.06
9306 C 109.40624154238897 29.40453434892507 40.39166412894363 C 0.0 **** -0.24
9307 H 108.8870333596301 28.5688372512993 39.92298005024741 H 0.0 **** 0.06
9308 H 109.72083030046774 29.118626573913872 41.395993906434136 H 0.0 **** 0.06
9309 H 108.73548530881553 30.261418309934385 40.45149305750813 H 0.0 **** 0.06
9310 H 110.28135798990557 29.667941619299626 39.79824072263633 H 0.0 **** 0.06
9311 C 114.19629297247857 22.805206155409223 66.93044012452637 C 0.0 **** -0.24
9312 H 114.21563949386616 22.66799262485685 68.01113465574815 H 0.0 **** 0.06
9313 H 113.21341959560694 22.527397223713052 66.54721981286502 H 0.0 **** 0.06
9314 H 114.95756162920719 22.1757135705044 66.46993532260132 H 0.0 **** 0.06
9315 H 114.39637525195829 23.850110890392145 66.69380806648098 H 0.0 **** 0.06
9316 C 41.50394406885394 30.92570477541426 109.76731045237214 C 0.0 **** -0.24
9317 H 41.95452533318601 30.14875427182639 109.1497313019077 H 0.0 **** 0.06
9318 H 41.51323039894157 31.87138030174262 109.22420161836348 H 0.0 **** 0.06
9319 H 42.073848794549434 31.030574618726178 110.69144279613064 H 0.0 **** 0.06
9320 H 40.47604012233205 30.651395785009456 110.0028663434594 H 0.0 **** 0.06
9321 C 72.51664456291394 104.65788991547879 117.1014259953434 C 0.0 **** -0.24
9322 H 73.48449598242757 104.56863804997363 116.60962602207479 H 0.0 **** 0.06
9323 H 72.66617006176841 104.86807036767757 118.16044717993569 H 0.0 **** 0.06
9324 H 71.96448481866764 103.7246412129287 116.99056551329573 H 0.0 **** 0.06
9325 H 71.95176922625842 105.47091437736074 116.64568744159003 H 0.0 **** 0.06
9326 C 30.425606828129276 111.84207501139139 67.37907012766803 C 0.0 **** -0.24
9327 H 29.370572842846315 112.10494605613263 67.29997718539417 H 0.0 **** 0.06
9328 H 30.52816265469741 110.92289416669593 67.95688715369644 H 0.0 **** 0.06
9329 H 30.96391637300701 112.6472078431816 67.87942354469567 H 0.0 **** 0.06
9330 H 30.839399946399055 111.69358742239507 66.38217133613048 H 0.0 **** 0.06
9331 C 1.98485075473954 115.81675041541124 41.01478820141551 C 0.0 **** -0.24
9332 H 2.307541947821065 114.80943661028712 40.753482246757926 H 0.0 **** 0.06
9333 H 0.9458594570669447 115.95432705997698 40.71209291938368 H 0.0 **** 0.06
9334 H 2.612621185750342 116.54463788015093 40.50157416505078 H 0.0 **** 0.06
9335 H 2.0705505006254583 115.95763482951912 42.092248968843705 H 0.0 **** 0.06
9336 C 44.056322455801876 90.00129613497288 2.865314976938947 C 0.0 **** -0.24
9337 H 43.64752268104374 90.77414783878743 2.2156370079656256 H 0.0 **** 0.06
9338 H 43.800681576727015 90.22525906107987 3.901057670842988 H 0.0 **** 0.06
9339 H 45.140227924164805 89.97032207821886 2.7567420375112874 H 0.0 **** 0.06
9340 H 43.63570295803024 89.03395686604628 2.589379137766173 H 0.0 **** 0.06
9341 C 30.960999055471575 25.961304541519212 65.51371467941831 C 0.0 **** -0.24
9342 H 31.239697715412376 26.792851572180666 66.16096127860422 H 0.0 **** 0.06
9343 H 31.592180032717067 25.96531520675623 64.62437889960546 H 0.0 **** 0.06
9344 H 29.916402995117437 26.06615503390873 65.2177753090998 H 0.0 **** 0.06
9345 H 31.093589179858725 25.022141405051343 66.05003173204764 H 0.0 **** 0.06
9346 C 104.41836695567977 30.232549363372527 9.60013660299191 C 0.0 **** -0.24
9347 H 103.65773888125224 30.567899805865636 8.894694461358029 H 0.0 **** 0.06
9348 H 104.10208641909782 30.47447735864216 10.615502113572546 H 0.0 **** 0.06
9349 H 105.36058826957898 30.733579742373024 9.383014521206377 H 0.0 **** 0.06
9350 H 104.54931749933164 29.154150430342384 9.507506699804281 H 0.0 **** 0.06
9351 C 111.4540285221136 22.307495826615025 93.70997930348096 C 0.0 **** -0.24
9352 H 111.70115820762844 22.212456710139918 92.65226993974201 H 0.0 **** 0.06
9353 H 111.04813984726398 21.363056359811083 94.07431448623896 H 0.0 **** 0.06
9354 H 110.71252001271307 23.096090234551923 93.8398969246737 H 0.0 **** 0.06
9355 H 112.35366911194814 22.5581663200187 94.27218628639037 H 0.0 **** 0.06
9356 C 1.7349477577168386 23.068357318046566 84.63941236566646 C 0.0 **** -0.24
9357 H 1.9281046734254232 23.95460307201634 85.2443367181341 H 0.0 **** 0.06
9358 H 2.1616728374594913 23.207825721930902 83.64469732619898 H 0.0 **** 0.06
9359 H 0.6598634261275151 22.912481516702627 84.55543660547218 H 0.0 **** 0.06
9360 H 2.193007431091985 22.198903649566205 85.11234925511107 H 0.0 **** 0.06
9361 C 106.08098903266247 73.57741925589505 50.95597335116989 C 0.0 **** -0.24
9362 H 105.35357516354998 73.8239903768667 50.18259290713513 H 0.0 **** 0.06
9363 H 107.06341039358676 73.94669281694911 50.66100911555111 H 0.0 **** 0.06
9364 H 106.12254869976903 72.49495258114825 51.084263521334094 H 0.0 **** 0.06
9365 H 105.78430469881172 74.04317916303489 51.89553477137295 H 0.0 **** 0.06
9366 C 17.83399365848902 63.88706489588071 35.92803097746793 C 0.0 **** -0.24
9367 H 17.40774322052266 64.28625713377613 36.8478758748756 H 0.0 **** 0.06
9368 H 18.9221187979428 63.878866381150544 36.004477961333436 H 0.0 **** 0.06
9369 H 17.53344124849427 64.51306221318026 35.08726095235262 H 0.0 **** 0.06
9370 H 17.473400174043704 62.86994013232072 35.77130451534221 H 0.0 **** 0.06
9371 C 117.77724572566558 23.63053347128738 98.5105685402003 C 0.0 **** -0.24
9372 H 118.02980159017108 22.574508772761533 98.60413091842187 H 0.0 **** 0.06
9373 H 118.47351310956722 24.22479581955281 99.10290172456533 H 0.0 **** 0.06
9374 H 116.76125264054019 23.794083268322368 98.8717017019492 H 0.0 **** 0.06
9375 H 117.84380928179269 23.92816315255942 97.46408087287628 H 0.0 **** 0.06
9376 C 16.12371260450763 87.7046471239122 71.95401830406456 C 0.0 **** -0.24
9377 H 15.171650117785646 88.13509812542159 72.26443016562342 H 0.0 **** 0.06
9378 H 16.733243929926445 88.47501174516788 71.48147042929764 H 0.0 **** 0.06
9379 H 15.943398549182035 86.89774257684115 71.24504555836364 H 0.0 **** 0.06
9380 H 16.64603569545592 87.3126280933619 72.82619843720227 H 0.0 **** 0.06
9381 C 83.48940083867407 102.93705540753683 32.019653739739915 C 0.0 **** -0.24
9382 H 84.0432822713669 102.78032293973601 31.09395569453916 H 0.0 **** 0.06
9383 H 83.03806910509991 103.92958848632452 32.00958541877272 H 0.0 **** 0.06
9384 H 84.16868030370554 102.85474365032539 32.86802909447409 H 0.0 **** 0.06
9385 H 82.70676454090139 102.18371667088118 32.106473735653886 H 0.0 **** 0.06
9386 C 103.72341976958555 6.3424872741235845 100.90435632390205 C 0.0 **** -0.24
9387 H 103.04623943529094 5.913546661412397 101.64387400030881 H 0.0 **** 0.06
9388 H 104.69778395868227 5.857458305578632 100.97964925203968 H 0.0 **** 0.06
9389 H 103.83327189829996 7.411320405205231 101.08907190414016 H 0.0 **** 0.06
9390 H 103.31593145502714 6.186418243610376 99.90541522890459 H 0.0 **** 0.06
9391 C 17.41436877664151 116.22281351689216 31.220271744278087 C 0.0 **** -0.24
9392 H 17.08148895884932 117.20427272101372 30.88140381480227 H 0.0 **** 0.06
9393 H 18.37586166551165 116.3198953580293 31.725481770109013 H 0.0 **** 0.06
9394 H 17.520197122723047 115.55832735297486 30.3621912565263 H 0.0 **** 0.06
9395 H 16.68017189973247 115.80969043316401 31.91174178546987 H 0.0 **** 0.06
9396 C 64.20979192452523 98.29876341540444 17.14530063352771 C 0.0 **** -0.24
9397 H 64.9431195593553 98.95163325037225 17.61879311892372 H 0.0 **** 0.06
9398 H 64.37334864411145 97.2718496492802 17.47342246493352 H 0.0 **** 0.06
9399 H 64.31882976389099 98.35534658706717 16.06177318891517 H 0.0 **** 0.06
9400 H 63.20581013027218 98.61601215004143 17.42677772308207 H 0.0 **** 0.06
9401 C 98.38942484417933 2.003447651652877 51.54568537031756 C 0.0 **** -0.24
9402 H 99.23252280763504 2.39390052845593 50.97576612809019 H 0.0 **** 0.06
9403 H 98.24962487418392 0.9482961040734637 51.31066462551286 H 0.0 **** 0.06
9404 H 97.48767394437454 2.5568188054102876 51.282914997447804 H 0.0 **** 0.06
9405 H 98.58722569542596 2.1163075887737506 52.61190348172364 H 0.0 **** 0.06
9406 C 13.046389959457159 106.17305536941336 15.92832352256157 C 0.0 **** -0.24
9407 H 13.95160873801133 106.50407176737707 15.420235321085116 H 0.0 **** 0.06
9408 H 12.39789657796183 105.65904328321312 15.217361074471768 H 0.0 **** 0.06
9409 H 12.523110658605958 107.03749290944458 16.337888076356734 H 0.0 **** 0.06
9410 H 13.311777539174813 105.4920736019603 16.73715530367781 H 0.0 **** 0.06
9411 C 82.41667874219632 101.80078319781967 53.85319281715215 C 0.0 **** -0.24
9412 H 82.07824973486015 101.19279375069507 54.691169611673104 H 0.0 **** 0.06
9413 H 81.59079240018815 101.95221018174658 53.15763532148452 H 0.0 **** 0.06
9414 H 83.23340505414427 101.29124994041729 53.341281109597105 H 0.0 **** 0.06
9415 H 82.76368685233507 102.76651687298087 54.220805949170085 H 0.0 **** 0.06
9416 C 95.97587449199162 99.47341457977544 5.331900573232923 C 0.0 **** -0.24
9417 H 96.36960881183663 100.3352894440855 5.871878027059111 H 0.0 **** 0.06
9418 H 95.7998946636921 99.74771027140324 4.291197151882487 H 0.0 **** 0.06
9419 H 95.03836282631227 99.15764432333202 5.787672982983974 H 0.0 **** 0.06
9420 H 96.69608170899818 98.6567288747728 5.376862437195804 H 0.0 **** 0.06
9421 C 11.799416584474045 25.057198701987133 70.02480437672844 C 0.0 **** -0.24
9422 H 12.535043581919467 24.275501498678324 70.21363752459436 H 0.0 **** 0.06
9423 H 10.93047623343935 24.624694243629023 69.52666257406742 H 0.0 **** 0.06
9424 H 12.239338919016632 25.824110818672096 69.38783524572523 H 0.0 **** 0.06
9425 H 11.491515531594814 25.50267109726495 70.97125189726987 H 0.0 **** 0.06
9426 C 89.61705303183655 75.9483720438144 41.98256540277828 C 0.0 **** -0.24
9427 H 89.63828132189957 76.25874867838547 40.93758487059546 H 0.0 **** 0.06
9428 H 90.0102008786937 74.9353099597705 42.067586298987976 H 0.0 **** 0.06
9429 H 88.58955658624834 75.97120995525887 42.346135305116775 H 0.0 **** 0.06
9430 H 90.228559047848 76.62723524955476 42.5752909660215 H 0.0 **** 0.06
9431 C 75.41616267431564 12.334555780929435 17.557217631292644 C 0.0 **** -0.24
9432 H 75.20466105263773 13.186269125135524 16.911535084534876 H 0.0 **** 0.06
9433 H 75.3029276367528 12.630831074624751 18.600185685595676 H 0.0 **** 0.06
9434 H 76.43737694701807 11.992771525864285 17.385169465634903 H 0.0 **** 0.06
9435 H 74.72025546862594 11.526015056550108 17.33151499969182 H 0.0 **** 0.06
9436 C 40.26678483502184 4.545045736274432 91.71666784455425 C 0.0 **** -0.24
9437 H 40.77284604382288 5.386047755295408 91.24130240671388 H 0.0 **** 0.06
9438 H 41.00157199756268 3.786977448883846 91.98965671832929 H 0.0 **** 0.06
9439 H 39.5445209159746 4.117353149043538 91.02123239968938 H 0.0 **** 0.06
9440 H 39.75032687461214 4.891111205250127 92.61169209209453 H 0.0 **** 0.06
9441 C 53.84809944263412 15.40524951371249 35.152272957520694 C 0.0 **** -0.24
9442 H 54.76354644699285 14.929445603191311 34.799299808335284 H 0.0 **** 0.06
9443 H 53.28810973926747 14.70080627023449 35.768699691275465 H 0.0 **** 0.06
9444 H 53.24158480064776 15.703503641704405 34.29844223596113 H 0.0 **** 0.06
9445 H 54.100560713507605 16.284717168306265 35.74393542159039 H 0.0 **** 0.06
9446 C 32.94784460728147 26.300689808773996 44.44772534354263 C 0.0 **** -0.24
9447 H 33.392126105016644 27.2008836459097 44.02352544860037 H 0.0 **** 0.06
9448 H 31.863751399640307 26.416210486147406 44.48702647870516 H 0.0 **** 0.06
9449 H 33.33404438726683 26.145412439482868 45.454898720777834 H 0.0 **** 0.06
9450 H 33.199132802168776 25.442737032053174 43.82425534751712 H 0.0 **** 0.06
9451 C 11.250396842259299 112.84492448997892 49.418431947505724 C 0.0 **** -0.24
9452 H 10.467594916038554 112.15468421308792 49.10564446077956 H 0.0 **** 0.06
9453 H 11.311893946906487 113.66911181867101 48.70786251730635 H 0.0 **** 0.06
9454 H 12.205504409518852 112.32001232040932 49.45170901771348 H 0.0 **** 0.06
9455 H 11.01536303089162 113.2353523394866 50.408954442187564 H 0.0 **** 0.06
9456 C 40.42714091351294 5.277276167214552 99.35269294706154 C 0.0 **** -0.24
9457 H 39.37820750130243 5.083892514700361 99.57745066802647 H 0.0 **** 0.06
9458 H 40.5526064929866 6.325440793078338 99.07882810772628 H 0.0 **** 0.06
9459 H 40.74363301378588 4.644013812893869 98.52408683363763 H 0.0 **** 0.06
9460 H 41.033310813782975 5.05584388603434 100.23156518591679 H 0.0 **** 0.06
9461 C 36.50739378030076 113.2656231696175 31.71415806922306 C 0.0 **** -0.24
9462 H 35.61637793031625 113.88080083604402 31.586856106406692 H 0.0 **** 0.06
9463 H 37.03332796469991 113.57175897445293 32.61854608338663 H 0.0 **** 0.06
9464 H 37.16193017677301 113.39305990206324 30.85131241900558 H 0.0 **** 0.06
9465 H 36.21664904982899 112.21822571558826 31.798334531735307 H 0.0 **** 0.06
9466 C 81.49176835751683 24.62008744708946 67.50511497383758 C 0.0 **** -0.24
9467 H 82.06079545345455 25.171898216080656 68.25317151932751 H 0.0 **** 0.06
9468 H 80.43312674954598 24.647568536747663 67.76178842639115 H 0.0 **** 0.06
9469 H 81.83325965294438 23.585358764697332 67.48011884180488 H 0.0 **** 0.06
9470 H 81.64191412399333 25.076144305343206 66.52610577465822 H 0.0 **** 0.06
9471 C 30.206374696413093 40.198344384822974 72.76520469257042 C 0.0 **** -0.24
9472 H 29.164185114831525 40.208349928701054 73.08695993015914 H 0.0 **** 0.06
9473 H 30.65572042919439 41.172199843997646 72.95854507100739 H 0.0 **** 0.06
9474 H 30.253576703515932 39.981809668425015 71.69773137378004 H 0.0 **** 0.06
9475 H 30.74852506927766 39.43046785075444 73.31635451382999 H 0.0 **** 0.06
9476 C 81.65232241151776 100.60470326752326 114.66461151246611 C 0.0 **** -0.24
9477 H 80.88970435473786 100.66926544923354 113.8892148858865 H 0.0 **** 0.06
9478 H 81.17425093124129 100.44616165865025 115.63095086896539 H 0.0 **** 0.06
9479 H 82.22455877806391 101.53152050394925 114.68960870835986 H 0.0 **** 0.06
9480 H 82.32107562301277 99.77051155606813 114.44839402336405 H 0.0 **** 0.06
9481 C 91.3495578115448 55.43899441188611 89.31587475793344 C 0.0 **** -0.24
9482 H 91.72240490160408 56.15933147140279 90.04404928334435 H 0.0 **** 0.06
9483 H 91.04822779319807 55.964044696227596 88.40829935650225 H 0.0 **** 0.06
9484 H 90.49202312258754 54.91186542383651 89.73310947644993 H 0.0 **** 0.06
9485 H 92.1363601813901 54.72351068636437 89.07721259354722 H 0.0 **** 0.06
9486 C 101.19764815777185 89.72527464249814 36.10398591070327 C 0.0 **** -0.24
9487 H 100.36471887595187 90.41436352131123 35.95780790996059 H 0.0 **** 0.06
9488 H 100.81119215623744 88.74252787269481 36.37744563524808 H 0.0 **** 0.06
9489 H 101.83976882715021 90.0981261055125 36.901806308531775 H 0.0 **** 0.06
9490 H 101.77123724846277 89.64761106981814 35.181363893681805 H 0.0 **** 0.06
9491 C 75.06526235803213 9.41610288898174 60.32660039796792 C 0.0 **** -0.24
9492 H 75.06511567722842 9.021598799576793 59.31006209433849 H 0.0 **** 0.06
9493 H 74.08737040461713 9.249224464854379 60.77938682530964 H 0.0 **** 0.06
9494 H 75.27768051621342 10.484470243339018 60.30159567856754 H 0.0 **** 0.06
9495 H 75.82985837657708 8.906388086818879 60.91323601293993 H 0.0 **** 0.06
9496 C 70.14423071968997 83.12170703499424 29.789796545118307 C 0.0 **** -0.24
9497 H 69.66466290870227 84.0992987212683 29.755580978809455 H 0.0 **** 0.06
9498 H 71.15749769496239 83.20015295277437 29.395912249253307 H 0.0 **** 0.06
9499 H 69.57323096108149 82.41553202682957 29.186722153787443 H 0.0 **** 0.06
9500 H 70.18063124838858 82.77142318043855 30.82108251954879 H 0.0 **** 0.06
9501 C 109.78664998944363 81.64186229079746 67.08554772642725 C 0.0 **** -0.24
9502 H 108.78342264421946 81.97544931812132 67.35211328912254 H 0.0 **** 0.06
9503 H 109.82948671624919 81.4395001470192 66.01494499994465 H 0.0 **** 0.06
9504 H 110.02635770538404 80.733164222808 67.63723565371382 H 0.0 **** 0.06
9505 H 110.50633637639937 82.42086862839005 67.33660983782613 H 0.0 **** 0.06
9506 C 82.10043431409701 82.14391722585677 24.1216455604835 C 0.0 **** -0.24
9507 H 82.87418388631508 81.50300039563658 24.545004533679986 H 0.0 **** 0.06
9508 H 81.94682412299997 83.00555676429917 24.77230127476156 H 0.0 **** 0.06
9509 H 81.17066216891001 81.58265065017116 24.035372214789334 H 0.0 **** 0.06
9510 H 82.41231417838935 82.48530029552256 23.134400838865645 H 0.0 **** 0.06
9511 C 43.46345203217228 45.71798685884133 69.29823955858905 C 0.0 **** -0.24
9512 H 42.40584590147465 45.525020747011155 69.118634668189 H 0.0 **** 0.06
9513 H 43.89242455740124 44.89089191107894 69.86424583993872 H 0.0 **** 0.06
9514 H 43.57293422406223 46.64221180350992 69.8646108178472 H 0.0 **** 0.06
9515 H 43.98189938099503 45.81262700394029 68.3440267058852 H 0.0 **** 0.06
9516 C 72.1504963497976 47.49572706297842 63.91360425294545 C 0.0 **** -0.24
9517 H 71.205990956063 47.96317834958895 63.631723889029246 H 0.0 **** 0.06
9518 H 72.09615260717817 47.16661979563531 64.95178043759148 H 0.0 **** 0.06
9519 H 72.96025470163909 48.21582783965424 63.80142235483481 H 0.0 **** 0.06
9520 H 72.33621671057716 46.635859983220264 63.26870409090574 H 0.0 **** 0.06
9521 C 75.10098185005393 90.77666911372353 71.77708798096452 C 0.0 **** -0.24
9522 H 76.03305403381731 90.7972695658506 72.34261047151975 H 0.0 **** 0.06
9523 H 74.74300084927859 91.79617758962198 71.63210292251989 H 0.0 **** 0.06
9524 H 74.3559376343384 90.20390143480142 72.3281132022957 H 0.0 **** 0.06
9525 H 75.27508978741628 90.31098821144732 70.8075967571375 H 0.0 **** 0.06
9526 C 36.77674925069658 86.85582662156384 109.215711456342 C 0.0 **** -0.24
9527 H 35.741543342766875 86.85830757482805 108.87245758093695 H 0.0 **** 0.06
9528 H 36.803537622195506 86.64156151282165 110.28448620465795 H 0.0 **** 0.06
9529 H 37.22343028151519 87.83239048517828 109.02815969745114 H 0.0 **** 0.06
9530 H 37.335050565098754 86.0899048992379 108.67679572478684 H 0.0 **** 0.06
9531 C 75.21850216601845 111.87633656643264 68.03607799076173 C 0.0 **** -0.24
9532 H 76.24528235226552 111.62268315138462 67.77207614264768 H 0.0 **** 0.06
9533 H 75.22172015442496 112.6616903504942 68.79204866359208 H 0.0 **** 0.06
9534 H 74.71575553082857 110.99259230506016 68.42968376377195 H 0.0 **** 0.06
9535 H 74.69193025801783 112.2281741095133 67.14815906532789 H 0.0 **** 0.06
9536 C 99.11487899816657 45.93287087995799 107.4630637293375 C 0.0 **** -0.24
9537 H 99.45779232377348 46.01982621010751 108.49337227923354 H 0.0 **** 0.06
9538 H 99.87160920044437 46.34189962137873 106.79235175072563 H 0.0 **** 0.06
9539 H 98.18367873994146 46.4861702735339 107.34120548953692 H 0.0 **** 0.06
9540 H 98.94824992633608 44.88196825652494 107.22356825821686 H 0.0 **** 0.06
9541 C 107.91611272862025 108.7235380270524 98.51241022977439 C 0.0 **** -0.24
9542 H 108.69363764491436 109.41031627711132 98.84978438692917 H 0.0 **** 0.06
9543 H 108.02096708471711 107.77217187780067 99.03289319626836 H 0.0 **** 0.06
9544 H 108.01483268955153 108.56362424673168 97.4388304660637 H 0.0 **** 0.06
9545 H 106.93620281468 109.15079183918368 98.72802418456777 H 0.0 **** 0.06
9546 C 66.69183470489253 38.97915166131119 49.641577788309576 C 0.0 **** -0.24
9547 H 66.17322091635282 38.03153536524454 49.78529498655524 H 0.0 **** 0.06
9548 H 67.46939939914867 38.856844479298346 48.88799592110311 H 0.0 **** 0.06
9549 H 67.14272396767947 39.293053731272636 50.58296768062931 H 0.0 **** 0.06
9550 H 65.97974585290896 39.73590264384066 49.31069404381569 H 0.0 **** 0.06
9551 C 8.565994426371375 104.50890322000163 42.77855266358635 C 0.0 **** -0.24
9552 H 8.300679173477505 104.8846578389115 43.76723861454549 H 0.0 **** 0.06
9553 H 9.229037053672812 103.6499092243769 42.88255444908921 H 0.0 **** 0.06
9554 H 9.071575642322017 105.29228347595478 42.21502226925477 H 0.0 **** 0.06
9555 H 7.661201415399873 104.20746898399477 42.25045551790141 H 0.0 **** 0.06
9556 C 48.87449583644232 117.0508005441714 18.469013702629383 C 0.0 **** -0.24
9557 H 49.872294807850096 117.22797949058535 18.869992983789672 H 0.0 **** 0.06
9558 H 48.29718642270109 116.45857700987351 19.180606865044325 H 0.0 **** 0.06
9559 H 48.95369597186175 116.51062311958825 17.52581317586848 H 0.0 **** 0.06
9560 H 48.37541354975352 118.00484871883465 18.301704190631796 H 0.0 **** 0.06
9561 C 50.67417941928949 14.873090676634007 68.27970003182679 C 0.0 **** -0.24
9562 H 50.83771619088219 13.799353419124998 68.18121313535664 H 0.0 **** 0.06
9563 H 51.61710472876953 15.36339961881788 68.52265804625515 H 0.0 **** 0.06
9564 H 49.95149422017039 15.058502660802418 69.07521505362163 H 0.0 **** 0.06
9565 H 50.28921852589866 15.268987798225226 67.33938614356498 H 0.0 **** 0.06
9566 C 45.500162912470444 118.24550348296238 22.02077506067127 C 0.0 **** -0.24
9567 H 46.321078923567796 117.66656643260444 22.445548465812976 H 0.0 **** 0.06
9568 H 44.56713141733846 117.96397591785647 22.509792522173086 H 0.0 **** 0.06
9569 H 45.426646998037484 118.04117467877744 20.95275787797806 H 0.0 **** 0.06
9570 H 45.687103338591214 119.30816623027968 22.176658847396993 H 0.0 **** 0.06
9571 C 103.41020931641552 102.56786576912558 36.13005154693863 C 0.0 **** -0.24
9572 H 103.05767998922121 101.94740204067685 36.95352975636143 H 0.0 **** 0.06
9573 H 102.69502098098826 102.52234647635382 35.30865504267427 H 0.0 **** 0.06
9574 H 104.37881107093261 102.20282104791181 35.7895863965719 H 0.0 **** 0.06
9575 H 103.50964129370243 103.59955866569379 36.46911154872908 H 0.0 **** 0.06
9576 C 24.609405359898574 113.39168493727085 81.94294490929681 C 0.0 **** -0.24
9577 H 25.3931705436016 114.14428185096783 81.84890409191519 H 0.0 **** 0.06
9578 H 25.063732057977035 112.40684541271949 82.05016857689077 H 0.0 **** 0.06
9579 H 23.9811315029244 113.40785976149547 81.0528331987428 H 0.0 **** 0.06
9580 H 24.001491616122934 113.60932738241522 82.82125022624263 H 0.0 **** 0.06
9581 C 59.66927188125836 0.07150748689264219 66.13543495010126 C 0.0 **** -0.24
9582 H 60.066988764441625 0.9883468032102769 65.70019418424641 H 0.0 **** 0.06
9583 H 58.579377660356776 0.1033565496672395 66.11420134896036 H 0.0 **** 0.06
9584 H 60.01063679132262 -0.018394483994200073 67.16640932851931 H 0.0 **** 0.06
9585 H 60.019454542022125 -0.7849149303564218 65.56105859858658 H 0.0 **** 0.06
9586 C 114.42543182005373 112.18483909694343 94.20558354245304 C 0.0 **** -0.24
9587 H 114.24054843040217 112.00583511901104 95.26521476716692 H 0.0 **** 0.06
9588 H 113.48354503911665 112.41817287120261 93.70789560773414 H 0.0 **** 0.06
9589 H 114.86258472088862 111.29334410280015 93.75734643037873 H 0.0 **** 0.06
9590 H 115.11331093329989 113.02326219657475 94.09397427225667 H 0.0 **** 0.06
9591 C 115.43854404188406 63.61901769214569 61.479329977317775 C 0.0 **** -0.24
9592 H 115.28172304705353 63.44280745189144 62.5432353598365 H 0.0 **** 0.06
9593 H 114.81657312666339 64.45410574847892 61.15540444697098 H 0.0 **** 0.06
9594 H 115.16771523559467 62.72500157377408 60.91894401953135 H 0.0 **** 0.06
9595 H 116.48725096356024 63.85681999847361 61.30117436224907 H 0.0 **** 0.06
9596 C 102.14542897092863 73.06696892051656 91.51158323835136 C 0.0 **** -0.24
9597 H 101.38612705150237 73.69988292073043 91.97084789980639 H 0.0 **** 0.06
9598 H 101.96191853360895 72.99806214685776 90.4395238539536 H 0.0 **** 0.06
9599 H 102.10241835712009 72.0706200573689 91.95382493522817 H 0.0 **** 0.06
9600 H 103.13131065058136 73.49843784241023 91.68500601167455 H 0.0 **** 0.06
9601 C 116.44816331433313 77.86056398839466 67.03249461917997 C 0.0 **** -0.24
9602 H 115.7142943845235 77.67065874778768 67.81624458497254 H 0.0 **** 0.06
9603 H 116.796055700128 76.91212990437714 66.62344788332425 H 0.0 **** 0.06
9604 H 117.29262628734466 78.40853515908773 67.45074988299004 H 0.0 **** 0.06
9605 H 115.9880450057222 78.45243280932553 66.240577911799 H 0.0 **** 0.06
9606 C 16.76992373918577 76.75854359857254 67.41649234414518 C 0.0 **** -0.24
9607 H 17.49211064220654 77.26843109284539 68.0542755372945 H 0.0 **** 0.06
9608 H 17.17884283128737 75.79922772324483 67.09886864648107 H 0.0 **** 0.06
9609 H 16.560578427899685 77.37312300311814 66.54044992681071 H 0.0 **** 0.06
9610 H 15.847182715888408 76.59427896059671 67.97287862707418 H 0.0 **** 0.06
9611 C 59.6688721863614 54.73803658766522 51.83342941889484 C 0.0 **** -0.24
9612 H 59.57416514254737 53.70558390852783 52.16873907722845 H 0.0 **** 0.06
9613 H 59.584842473360425 54.77756048836085 50.74729340059454 H 0.0 **** 0.06
9614 H 60.63904319664266 55.13182754976847 52.137668638630515 H 0.0 **** 0.06
9615 H 58.87714034841747 55.338985747179244 52.281638542704485 H 0.0 **** 0.06
9616 C 88.9829007799147 54.96860805885131 115.03644712944708 C 0.0 **** -0.24
9617 H 88.24383656463749 54.31745304838919 115.50196161705928 H 0.0 **** 0.06
9618 H 89.91288822891602 54.9259042693812 115.60307070853995 H 0.0 **** 0.06
9619 H 88.61027362426387 55.9921645337946 115.02621834191804 H 0.0 **** 0.06
9620 H 89.16448002257903 54.63780689869406 114.01366212615301 H 0.0 **** 0.06
9621 C 36.11264003809361 56.44181824307301 38.95916018959326 C 0.0 **** -0.24
9622 H 36.792072447540434 56.108463202140605 38.17461089426354 H 0.0 **** 0.06
9623 H 35.891905926210384 55.608103228414244 39.626486463234755 H 0.0 **** 0.06
9624 H 35.18655204012102 56.801421985825336 38.509697412195464 H 0.0 **** 0.06
9625 H 36.579028427425605 57.247285394937656 39.52587799364653 H 0.0 **** 0.06
9626 C 75.47460392741345 22.685870801936147 25.523188385872743 C 0.0 **** -0.24
9627 H 74.44492407815778 22.55021598354304 25.191413185584054 H 0.0 **** 0.06
9628 H 76.10088433055998 22.938995351995402 24.667233107749155 H 0.0 **** 0.06
9629 H 75.83454635909922 21.761819436996802 25.976542706729674 H 0.0 **** 0.06
9630 H 75.51657994405119 23.490875599223585 26.256415376258246 H 0.0 **** 0.06
9631 C 103.45922687653697 27.535609705957874 107.54563870450878 C 0.0 **** -0.24
9632 H 103.92163717408485 27.583759136351993 106.56028300340657 H 0.0 **** 0.06
9633 H 103.43354013805822 26.499874356319268 107.88539757429007 H 0.0 **** 0.06
9634 H 102.44130115876231 27.923774009912997 107.48896957869553 H 0.0 **** 0.06
9635 H 104.03763231983791 28.135183929962842 108.24897965957337 H 0.0 **** 0.06
9636 C 6.275863421186642 92.91709792219606 32.707220124318326 C 0.0 **** -0.24
9637 H 6.036318008216881 91.9972345366566 32.17307411466243 H 0.0 **** 0.06
9638 H 7.218360529567164 93.31787935131649 32.33488024674324 H 0.0 **** 0.06
9639 H 6.36526497851294 92.7060942456589 33.77250381182944 H 0.0 **** 0.06
9640 H 5.480808708482783 93.64615291396055 32.546797351138935 H 0.0 **** 0.06
9641 C 12.5771879940377 64.77680960287609 17.920997457845402 C 0.0 **** -0.24
9642 H 12.33395708253778 65.83830699947342 17.87343091839645 H 0.0 **** 0.06
9643 H 13.203965654428742 64.5102084951275 17.070211254878387 H 0.0 **** 0.06
9644 H 11.65738845748433 64.19162235692917 17.89373329974768 H 0.0 **** 0.06
9645 H 13.112097648096551 64.56838424605118 18.84735488277647 H 0.0 **** 0.06
9646 C 87.72177264421734 72.32688940771502 16.041772044144157 C 0.0 **** -0.24
9647 H 86.78885545407786 71.78744492530586 16.203857536780312 H 0.0 **** 0.06
9648 H 87.6452422249078 72.92002078048662 15.131127343701362 H 0.0 **** 0.06
9649 H 88.54147762588897 71.61460248721224 15.944603681318611 H 0.0 **** 0.06
9650 H 87.91226549878306 72.98559981864187 16.889056904576478 H 0.0 **** 0.06
9651 C 27.742822036700147 34.8257541383834 13.308542336313451 C 0.0 **** -0.24
9652 H 27.361037356592135 33.832050666191 13.541345677534295 H 0.0 **** 0.06
9653 H 28.749722586958114 34.93189638098389 13.713046616510468 H 0.0 **** 0.06
9654 H 27.090624319243773 35.57810925626618 13.752550792306081 H 0.0 **** 0.06
9655 H 27.76908722568362 34.96064978127505 12.226739702786247 H 0.0 **** 0.06
9656 C 65.64551135005775 19.52277835462371 89.0479583976742 C 0.0 **** -0.24
9657 H 66.34960059758171 19.380496135750434 89.86813990500318 H 0.0 **** 0.06
9658 H 65.24585004789515 18.556486758468054 88.74049952761388 H 0.0 **** 0.06
9659 H 66.15927942516186 19.988553121083214 88.20679799574452 H 0.0 **** 0.06
9660 H 64.83019815530844 20.16687661587963 89.37644029698367 H 0.0 **** 0.06
9661 C 110.57817051623648 117.95870194666139 56.93450635866685 C 0.0 **** -0.24
9662 H 109.7328812472975 118.64398651510471 57.008518312901 H 0.0 **** 0.06
9663 H 110.21289196705237 116.93106418067806 56.94198003713541 H 0.0 **** 0.06
9664 H 111.2461892254308 118.11348352082783 57.78188894470486 H 0.0 **** 0.06
9665 H 111.11732561122665 118.14650550580133 56.00719624614919 H 0.0 **** 0.06
9666 C 57.224153184649644 27.029946754028515 112.26582400467416 C 0.0 **** -0.24
9667 H 58.028721320445776 27.17078862704112 111.54371994011117 H 0.0 **** 0.06
9668 H 57.46020680951619 27.57214533310885 113.1815876036452 H 0.0 **** 0.06
9669 H 57.11665012641357 25.968457292029143 112.4880530764433 H 0.0 **** 0.06
9670 H 56.29197631004856 27.410055582285416 111.84876995601357 H 0.0 **** 0.06
9671 C 97.32393554725226 1.156660639417824 112.75165309316846 C 0.0 **** -0.24
9672 H 97.64564946231386 0.12494210068850897 112.88815032189243 H 0.0 **** 0.06
9673 H 97.04663481546004 1.3154409165078338 111.70911112779332 H 0.0 **** 0.06
9674 H 98.13799788362496 1.8296924330625899 113.01973191230257 H 0.0 **** 0.06
9675 H 96.46213591437461 1.3554720852327353 113.39094264864218 H 0.0 **** 0.06
9676 C 43.645285474056465 80.1284768110942 71.77615857552541 C 0.0 **** -0.24
9677 H 43.62195428840985 79.75274288359117 72.79876270318397 H 0.0 **** 0.06
9678 H 43.389984726394374 81.18829245015874 71.77216779963646 H 0.0 **** 0.06
9679 H 42.92439291657763 79.57818010097097 71.17090816136277 H 0.0 **** 0.06
9680 H 44.64483306770089 79.99318062931337 71.36194948432379 H 0.0 **** 0.06
9681 C 9.22536133960379 87.50518532224214 46.071893373742824 C 0.0 **** -0.24
9682 H 8.940533508354836 88.07276570256329 46.95836573456387 H 0.0 **** 0.06
9683 H 9.768851939755024 86.60943838964747 46.374130081369174 H 0.0 **** 0.06
9684 H 9.863107825124075 88.11951401310597 45.436453181890386 H 0.0 **** 0.06
9685 H 8.329942699635751 87.2189954623997 45.52062904381137 H 0.0 **** 0.06
9686 C 110.11270766266028 68.99927966791986 44.98610075739985 C 0.0 **** -0.24
9687 H 110.83325090924001 69.04301838587602 45.802517254052944 H 0.0 **** 0.06
9688 H 109.24867597122983 69.61748511747635 45.231787316712015 H 0.0 **** 0.06
9689 H 109.79280831539592 67.96780217317885 44.83900506094124 H 0.0 **** 0.06
9690 H 110.57631734368687 69.3700952850923 44.07164712609926 H 0.0 **** 0.06
9691 C 117.17142869163845 115.52688397483168 96.81354759624406 C 0.0 **** -0.24
9692 H 117.41225896407028 115.61373099792378 95.75346032843845 H 0.0 **** 0.06
9693 H 117.718728790098 116.28510387787523 97.37417294988921 H 0.0 **** 0.06
9694 H 117.45521542442839 114.53601366960581 97.16976208891802 H 0.0 **** 0.06
9695 H 116.10049185499548 115.67135485834078 96.95567084412582 H 0.0 **** 0.06
9696 C 77.92706772166875 21.679688747128182 118.42433629121619 C 0.0 **** -0.24
9697 H 77.63059195343251 21.751445634159268 119.47056170184015 H 0.0 **** 0.06
9698 H 78.9550852842747 22.02531103273307 118.31357654374219 H 0.0 **** 0.06
9699 H 77.26693139980696 22.30021254168446 117.8172688321619 H 0.0 **** 0.06
9700 H 77.85387489772478 20.643018270515626 118.09707241210305 H 0.0 **** 0.06
9701 C 61.07963924737845 49.314441306187135 100.13059711774724 C 0.0 **** -0.24
9702 H 62.09475750068066 49.053411592668894 99.83306235899516 H 0.0 **** 0.06
9703 H 60.81045692040897 48.76050379518083 101.02962973480288 H 0.0 **** 0.06
9704 H 60.38855698539953 49.06104440552072 99.32608301440496 H 0.0 **** 0.06
9705 H 61.02451696184659 50.384349483354626 100.33237079271163 H 0.0 **** 0.06
9706 C 17.098748526510832 77.15099431769136 60.94629673059499 C 0.0 **** -0.24
9707 H 16.89965806593233 76.69233824780662 61.915634265207736 H 0.0 **** 0.06
9708 H 16.242101680727956 77.75724294026887 60.65024536236938 H 0.0 **** 0.06
9709 H 17.266762641179895 76.37079218455139 60.203587847677646 H 0.0 **** 0.06
9710 H 17.9842193183826 77.78191358680994 61.01747164197824 H 0.0 **** 0.06
9711 C 111.58271627285797 116.72464295917318 83.97363277786292 C 0.0 **** -0.24
9712 H 111.7543043571601 116.36890008462714 82.95713478290642 H 0.0 **** 0.06
9713 H 110.62718054347636 116.344498757684 84.33585020379812 H 0.0 **** 0.06
9714 H 111.56487239664841 117.81446809451171 83.97791494353433 H 0.0 **** 0.06
9715 H 112.3846781327328 116.37258122138327 84.6220656928879 H 0.0 **** 0.06
9716 C 87.67789708515753 18.732821183083118 39.457248821298904 C 0.0 **** -0.24
9717 H 86.8865933269978 17.986665433251375 39.53732753247937 H 0.0 **** 0.06
9718 H 88.37041521502454 18.444317224683573 38.66656578192391 H 0.0 **** 0.06
9719 H 88.21272399252001 18.79779606260297 40.40442619257814 H 0.0 **** 0.06
9720 H 87.23825355192085 19.702508490029658 39.22083236695899 H 0.0 **** 0.06
9721 C 66.21618123759276 30.80470455703565 66.09004660694796 C 0.0 **** -0.24
9722 H 66.00489842198658 30.587360615970937 67.13713197211331 H 0.0 **** 0.06
9723 H 66.28387503859312 29.87060398158161 65.53175521777672 H 0.0 **** 0.06
9724 H 67.16119734936547 31.343293262397452 66.01413632693658 H 0.0 **** 0.06
9725 H 65.41433016560899 31.417387926697728 65.67805204978669 H 0.0 **** 0.06
9726 C 24.363690015684853 110.61683740491074 93.96100805206075 C 0.0 **** -0.24
9727 H 24.012111778586572 110.7758912636726 92.94057221138053 H 0.0 **** 0.06
9728 H 23.67952589958844 109.94547283112182 94.47992677369058 H 0.0 **** 0.06
9729 H 24.40317702685023 111.5717025520402 94.48398398027302 H 0.0 **** 0.06
9730 H 25.359166625143075 110.17376310432512 93.9360672788554 H 0.0 **** 0.06
9731 C 61.39432548507309 97.2949807776649 39.8341544021896 C 0.0 **** -0.24
9732 H 60.61647935717236 97.12546136866189 40.577888945835355 H 0.0 **** 0.06
9733 H 61.74900230454096 96.33692572896615 39.45353586351814 H 0.0 **** 0.06
9734 H 62.22445147815224 97.83399456445662 40.29232645308497 H 0.0 **** 0.06
9735 H 60.98827367201573 97.88554074176079 39.01243701316844 H 0.0 **** 0.06
9736 C 61.17244811644013 81.7332239968153 105.68665558453142 C 0.0 **** -0.24
9737 H 61.929234853569035 81.38440687554007 104.98444551320631 H 0.0 **** 0.06
9738 H 61.495207747504345 82.67465299623501 106.13153224714551 H 0.0 **** 0.06
9739 H 61.03354833675967 80.98895474675805 106.47133752889005 H 0.0 **** 0.06
9740 H 60.23042474736267 81.88465136917597 105.15907968882016 H 0.0 **** 0.06
9741 C 36.01280450571585 108.75649983462108 26.85451320253003 C 0.0 **** -0.24
9742 H 36.911856583724756 108.39387081747898 27.35292280543956 H 0.0 **** 0.06
9743 H 35.669358697907114 109.66892863490244 27.34247453208863 H 0.0 **** 0.06
9744 H 35.23379332016444 107.99701364673987 26.913375892032604 H 0.0 **** 0.06
9745 H 36.23740067212117 108.96564928147845 25.80873854980888 H 0.0 **** 0.06
9746 C 0.06290273622703069 38.19725665472174 14.879685854330205 C 0.0 **** -0.24
9747 H -0.15487855307009113 37.164114885637304 14.607928615186523 H 0.0 **** 0.06
9748 H 1.0603517647761578 38.46202399671236 14.528218523491859 H 0.0 **** 0.06
9749 H 0.02000641032256567 38.30357334188889 15.963770838516353 H 0.0 **** 0.06
9750 H -0.6725820367808382 38.85646434633304 14.419296997988681 H 0.0 **** 0.06
9751 C 105.78490669191856 38.158954559976856 61.68721634236363 C 0.0 **** -0.24
9752 H 105.13377182514822 38.691027079402936 60.99319485414324 H 0.0 **** 0.06
9753 H 106.1192053419492 37.22726883365079 61.23008974327914 H 0.0 **** 0.06
9754 H 105.23669609902308 37.9391854660174 62.602673708779975 H 0.0 **** 0.06
9755 H 106.64993539052705 38.77936044146284 61.92150987666258 H 0.0 **** 0.06
9756 C 20.866396902675007 71.90255980756527 108.17555936891333 C 0.0 **** -0.24
9757 H 21.530325406205748 71.04034733876424 108.24094432558078 H 0.0 **** 0.06
9758 H 21.138640829275545 72.62974547035952 108.9403964843363 H 0.0 **** 0.06
9759 H 19.836788029679127 71.57985898566 108.32985879752692 H 0.0 **** 0.06
9760 H 20.95905393398391 72.3589594958294 107.18976141681952 H 0.0 **** 0.06
9761 C 44.08953917873936 15.338124097515067 50.54680766323668 C 0.0 **** -0.24
9762 H 43.38253824905365 15.437086511202914 51.36961663910574 H 0.0 **** 0.06
9763 H 43.544257523097485 15.257594983603031 49.60646488283123 H 0.0 **** 0.06
9764 H 44.69547493076425 14.44413274828792 50.69396029506652 H 0.0 **** 0.06
9765 H 44.737244761369425 16.21572024012972 50.51720694324604 H 0.0 **** 0.06
9766 C 27.30138965222639 110.82547392450618 47.1710850177154 C 0.0 **** -0.24
9767 H 26.967373581187587 111.81001988216157 47.49797348545931 H 0.0 **** 0.06
9768 H 26.642717386739776 110.06206441759193 47.58613006067168 H 0.0 **** 0.06
9769 H 28.321021978564744 110.65349301997517 47.516822049838396 H 0.0 **** 0.06
9770 H 27.274500052928545 110.77580027995606 46.082099662016475 H 0.0 **** 0.06
9771 C 28.369113732865145 25.434101168279824 116.69266954261575 C 0.0 **** -0.24
9772 H 27.513992489018705 25.655983548812912 117.33148286649018 H 0.0 **** 0.06
9773 H 28.22819696331328 24.460291490066425 116.22191712193123 H 0.0 **** 0.06
9774 H 29.27725062321943 25.418276187361073 117.29517308619941 H 0.0 **** 0.06
9775 H 28.456380231383434 26.20030965610914 115.92320700146541 H 0.0 **** 0.06
9776 C 29.217592113276517 15.203501466006287 55.50289715969035 C 0.0 **** -0.24
9777 H 28.574323627747212 14.323554179501087 55.52128241084279 H 0.0 **** 0.06
9778 H 29.168398879003604 15.709315578498632 56.46715525591438 H 0.0 **** 0.06
9779 H 28.88260027581797 15.88190069807709 54.71817521679469 H 0.0 **** 0.06
9780 H 30.245198455475382 14.897830247590491 55.30502369525183 H 0.0 **** 0.06
9781 C 47.09852486143191 14.017541338762328 73.48362210791558 C 0.0 **** -0.24
9782 H 46.287799540290685 14.745550351519512 73.44564927458453 H 0.0 **** 0.06
9783 H 47.27728572519757 13.726879306103484 74.51906343095561 H 0.0 **** 0.06
9784 H 48.003503841042935 14.46121243312598 73.06867564102112 H 0.0 **** 0.06
9785 H 46.824280640061396 13.138188139816208 72.90025372681728 H 0.0 **** 0.06
9786 C 30.594310707552836 115.21297671500616 8.176091824329575 C 0.0 **** -0.24
9787 H 30.113887731798116 115.26030369466109 7.198703209613072 H 0.0 **** 0.06
9788 H 29.877145313445908 114.85588884338463 8.915494722033543 H 0.0 **** 0.06
9789 H 30.94451473224052 116.20548023595155 8.457812272499055 H 0.0 **** 0.06
9790 H 31.441498828938705 114.52788264649928 8.130026240858157 H 0.0 **** 0.06
9791 C 94.18363642375812 107.61179332558294 52.29665993006935 C 0.0 **** -0.24
9792 H 95.16873777100568 108.0759512994288 52.23263345626671 H 0.0 **** 0.06
9793 H 93.44208249040241 108.36893991010581 52.549211539710285 H 0.0 **** 0.06
9794 H 94.1956999875934 106.8421987180256 53.06795762482838 H 0.0 **** 0.06
9795 H 93.93148501001838 107.16105827836927 51.33712300374171 H 0.0 **** 0.06
9796 C 25.04715926724643 111.07421719534716 18.430950119068086 C 0.0 **** -0.24
9797 H 25.034890142874815 110.18808688575527 19.065953380281528 H 0.0 **** 0.06
9798 H 24.741243625965126 111.94391426804488 19.014352485345896 H 0.0 **** 0.06
9799 H 24.356602932708824 110.93509513422012 17.598678759006418 H 0.0 **** 0.06
9800 H 26.054126813572225 111.23127129380383 18.04559588708166 H 0.0 **** 0.06
9801 C 58.80756339560051 69.76052240231513 58.70913889685519 C 0.0 **** -0.24
9802 H 59.08484592814054 69.46222067840586 57.698045897996785 H 0.0 **** 0.06
9803 H 58.67526508414832 70.84159274594174 58.74609302568867 H 0.0 **** 0.06
9804 H 59.59459733966767 69.46565954014079 59.40355380200864 H 0.0 **** 0.06
9805 H 57.87394217246995 69.26923572277423 58.98888264529669 H 0.0 **** 0.06
9806 C 86.58796285924129 44.152628725635196 79.61519063089676 C 0.0 **** -0.24
9807 H 86.53744396977672 43.38337656838365 78.84470927471105 H 0.0 **** 0.06
9808 H 86.01780643664188 45.025043458945305 79.29515034295457 H 0.0 **** 0.06
9809 H 87.62695151728343 44.43712308840631 79.7780833220593 H 0.0 **** 0.06
9810 H 86.16751811678276 43.7646340473209 80.54340556498366 H 0.0 **** 0.06
9811 C 24.744203839275613 116.60967659572783 67.14898743359902 C 0.0 **** -0.24
9812 H 23.755938875307145 116.46767611667697 67.5858258112961 H 0.0 **** 0.06
9813 H 24.69546168351001 117.38611618618125 66.3844768528885 H 0.0 **** 0.06
9814 H 25.07973539676405 115.67609538829116 66.69808363542074 H 0.0 **** 0.06
9815 H 25.44627622239902 116.91007401864414 67.92730252029133 H 0.0 **** 0.06
9816 C 0.20496058644498305 93.41422798688922 58.33983151482986 C 0.0 **** -0.24
9817 H 0.42361575164792953 92.35923358961722 58.17790484108624 H 0.0 **** 0.06
9818 H 0.19406066492570062 93.93390498821759 57.382364279690854 H 0.0 **** 0.06
9819 H 0.9707540399360539 93.84987446428369 58.982087023706804 H 0.0 **** 0.06
9820 H -0.7697707303716612 93.51338205304194 58.818795994564006 H 0.0 **** 0.06
9821 C 16.81658036657298 76.23596359999812 16.41462182289655 C 0.0 **** -0.24
9822 H 17.21607454869713 77.14889449179233 16.855611754549614 H 0.0 **** 0.06
9823 H 15.937681541735476 76.47562514786705 15.816509174402256 H 0.0 **** 0.06
9824 H 16.53824067732194 75.54197421760696 17.208082822089693 H 0.0 **** 0.06
9825 H 17.575255018919748 75.77714183930959 15.779728133386072 H 0.0 **** 0.06
9826 C 16.974398314102046 22.943350817414057 70.8142281118179 C 0.0 **** -0.24
9827 H 17.47705933948225 22.061340982302667 70.4161211263442 H 0.0 **** 0.06
9828 H 16.85534023625678 23.6821229253774 70.02139865897416 H 0.0 **** 0.06
9829 H 17.571994386801457 23.368880477070917 71.62030813490384 H 0.0 **** 0.06
9830 H 15.99483166325144 22.66110573541934 71.19850716156816 H 0.0 **** 0.06
9831 C 69.35137603411317 58.586621904233986 101.77570651321957 C 0.0 **** -0.24
9832 H 68.57932459621935 59.04864392532814 101.16070506759547 H 0.0 **** 0.06
9833 H 69.40573178936498 59.0971335168932 102.73654720639882 H 0.0 **** 0.06
9834 H 70.31353043945842 58.66324089138643 101.26800869517697 H 0.0 **** 0.06
9835 H 69.1079399475338 57.536109288846 101.93471810732726 H 0.0 **** 0.06
9836 C 89.54463687146131 47.98547638774846 78.55546027221749 C 0.0 **** -0.24
9837 H 90.49251341335881 47.48906023210921 78.76064693464264 H 0.0 **** 0.06
9838 H 88.80136306265857 47.24184310939657 78.26414550946106 H 0.0 **** 0.06
9839 H 89.67660341490816 48.70243812447873 77.74569103692932 H 0.0 **** 0.06
9840 H 89.2052708828289 48.50615143870726 79.45075897679976 H 0.0 **** 0.06
9841 C 77.44619788713044 46.67971927174506 60.028002607031965 C 0.0 **** -0.24
9842 H 78.13120474756548 47.517417609198176 59.89974261306364 H 0.0 **** 0.06
9843 H 76.66350407377968 46.95590386798037 60.73469139563241 H 0.0 **** 0.06
9844 H 77.99335342826595 45.81827997823163 60.409034943099556 H 0.0 **** 0.06
9845 H 76.9965426054039 46.42882149030174 59.06728620721768 H 0.0 **** 0.06
9846 C 101.6500549282616 45.66887985894414 103.75339683775499 C 0.0 **** -0.24
9847 H 102.70719481813595 45.56263017179492 103.51125681804666 H 0.0 **** 0.06
9848 H 101.29538281903555 44.76046546822249 104.24068482215702 H 0.0 **** 0.06
9849 H 101.0835271423613 45.835830552584525 102.83698299323444 H 0.0 **** 0.06
9850 H 101.51502088071592 46.518582534033214 104.42355712593206 H 0.0 **** 0.06
9851 C 13.356088397638246 91.36083062779542 89.7858697036205 C 0.0 **** -0.24
9852 H 12.58047929072444 90.95352705911583 89.13659168950932 H 0.0 **** 0.06
9853 H 13.553803488323865 92.39622895349211 89.50797649627503 H 0.0 **** 0.06
9854 H 14.268391251713695 90.7745504114491 89.67350150745614 H 0.0 **** 0.06
9855 H 13.021592593159824 91.31936204197444 90.82182115338969 H 0.0 **** 0.06
9856 C 6.332015673601745 7.187385682987241 42.09035888332056 C 0.0 **** -0.24
9857 H 6.494609283637033 7.470589628327559 43.13098537586705 H 0.0 **** 0.06
9858 H 6.972418571831497 6.342241629198043 41.83965751766278 H 0.0 **** 0.06
9859 H 6.571567646263247 8.030988339402967 41.44229404511205 H 0.0 **** 0.06
9860 H 5.287819675593539 6.906941289698523 41.94984103197403 H 0.0 **** 0.06
9861 C 11.168898135157804 45.711437842541386 21.695185088156023 C 0.0 **** -0.24
9862 H 10.547471892844698 44.89606869325769 21.324221242484185 H 0.0 **** 0.06
9863 H 10.72056496143864 46.12809796678937 22.59703943696931 H 0.0 **** 0.06
9864 H 11.241179394292772 46.48743782547399 20.93277440580991 H 0.0 **** 0.06
9865 H 12.165247869593259 45.332897435942414 21.924222110556713 H 0.0 **** 0.06
9866 C 26.75644462448929 8.583834912571177 62.97243141823418 C 0.0 **** -0.24
9867 H 27.06961862314239 8.759773865250196 61.94353342765464 H 0.0 **** 0.06
9868 H 26.949200772936962 7.543007326106647 63.23740447930078 H 0.0 **** 0.06
9869 H 25.691425616071427 8.791831914950876 63.06923667373121 H 0.0 **** 0.06
9870 H 27.3179496707059 9.238249749630228 63.63971914877044 H 0.0 **** 0.06
9871 C 108.0547692093094 10.227027423285506 98.43506505072335 C 0.0 **** -0.24
9872 H 108.87127169336978 9.683934304811146 97.95763734627911 H 0.0 **** 0.06
9873 H 107.10712539434124 9.748751970569117 98.18877391923223 H 0.0 **** 0.06
9874 H 108.04720513442064 11.256605250155587 98.0766660023296 H 0.0 **** 0.06
9875 H 108.19708419721212 10.218980815487384 99.51519661730916 H 0.0 **** 0.06
9876 C 96.4676468481411 52.362729193304546 55.0122870866864 C 0.0 **** -0.24
9877 H 95.48356052887061 52.39774816502508 54.544128567216546 H 0.0 **** 0.06
9878 H 96.4985278147453 51.54516238128184 55.732368630930296 H 0.0 **** 0.06
9879 H 96.66088527961361 53.305414976800265 55.52413470519673 H 0.0 **** 0.06
9880 H 97.22796945810339 52.20306320977065 54.24723158671884 H 0.0 **** 0.06
9881 C 32.92338608554118 1.144068958051406 59.33128601356208 C 0.0 **** -0.24
9882 H 32.41739581247208 0.5058804186686245 58.605955828186495 H 0.0 **** 0.06
9883 H 32.51659567709973 0.9561657330475555 60.32550056685005 H 0.0 **** 0.06
9884 H 32.76731030090505 2.189467543829977 59.06524520980247 H 0.0 **** 0.06
9885 H 33.99069656365461 0.922914115630391 59.326654918625536 H 0.0 **** 0.06
9886 C 45.983892638667484 17.59038574415223 23.574173200673386 C 0.0 **** -0.24
9887 H 45.99834810182284 18.303790031414508 24.39720530212921 H 0.0 **** 0.06
9888 H 45.54828744936435 18.06214471079454 22.69262782836489 H 0.0 **** 0.06
9889 H 45.38547160247899 16.72342305507769 23.85535564857767 H 0.0 **** 0.06
9890 H 47.00231619147277 17.271972635327444 23.35070474115645 H 0.0 **** 0.06
9891 C 70.45959841692172 27.272862570301754 27.42223256459522 C 0.0 **** -0.24
9892 H 69.8478731979867 26.530949486116924 26.90746379059908 H 0.0 **** 0.06
9893 H 69.86413688039033 28.165953253461964 27.612003913893318 H 0.0 **** 0.06
9894 H 71.31596169380532 27.531531751322632 26.800679933053573 H 0.0 **** 0.06
9895 H 70.80854691040884 26.860959386628906 28.369288687310757 H 0.0 **** 0.06
9896 C 90.24642504887254 101.05172638690289 2.3715982410452483 C 0.0 **** -0.24
9897 H 90.14592037114255 100.31618719155176 3.1705967103467145 H 0.0 **** 0.06
9898 H 89.39443048465336 101.73217065114798 2.396407870432867 H 0.0 **** 0.06
9899 H 90.27613737514221 100.54135206288097 1.4099477426047997 H 0.0 **** 0.06
9900 H 91.16776519648911 101.61669408137121 2.5128547466665196 H 0.0 **** 0.06
9901 C 70.92096559306646 81.85543564653372 44.83655912592849 C 0.0 **** -0.24
9902 H 71.15142476701959 82.91584447603415 44.733208935413586 H 0.0 **** 0.06
9903 H 71.35124292172097 81.30807881619887 43.997493854951756 H 0.0 **** 0.06
9904 H 69.84020491671296 81.71702665935894 44.844734274155314 H 0.0 **** 0.06
9905 H 71.34277700425889 81.4812936662442 45.7695524258271 H 0.0 **** 0.06
9906 C 5.713432606268643 118.2251067829974 9.208361241105479 C 0.0 **** -0.24
9907 H 4.830303271662405 118.84827666250982 9.352958997521739 H 0.0 **** 0.06
9908 H 5.88963835583977 118.08694501630207 8.14094168331009 H 0.0 **** 0.06
9909 H 5.553087846464784 117.25476175122171 9.679049767622274 H 0.0 **** 0.06
9910 H 6.577791700245573 118.71010115698516 9.659846866840638 H 0.0 **** 0.06
9911 C 32.89245880831754 49.67775401545969 101.55395712479063 C 0.0 **** -0.24
9912 H 32.37021548862242 49.38494240307135 100.64358258950898 H 0.0 **** 0.06
9913 H 33.96838429225046 49.658389621299705 101.3779344172973 H 0.0 **** 0.06
9914 H 32.64205307958888 48.98235980275607 102.35529253986755 H 0.0 **** 0.06
9915 H 32.588749437619796 50.68498898735698 101.83818215209945 H 0.0 **** 0.06
9916 C 50.04411953111055 98.27636858106163 103.6695966543374 C 0.0 **** -0.24
9917 H 50.79878159146166 98.87976649680695 104.17418728622295 H 0.0 **** 0.06
9918 H 50.39966670488175 97.24871194400251 103.58362155879888 H 0.0 **** 0.06
9919 H 49.860918364626684 98.68193757419488 102.67483051865077 H 0.0 **** 0.06
9920 H 49.1193642326602 98.29423581512003 104.24524836916646 H 0.0 **** 0.06
9921 C 55.612221723784764 114.51898527380496 14.902717923406907 C 0.0 **** -0.24
9922 H 56.416401337866525 115.25503221654775 14.89902496883401 H 0.0 **** 0.06
9923 H 54.65077352150812 115.03168831936881 14.847106399133562 H 0.0 **** 0.06
9924 H 55.6598062015595 113.93465844688991 15.82139546245606 H 0.0 **** 0.06
9925 H 55.721674382406924 113.85687456867699 14.04411902561922 H 0.0 **** 0.06
9926 C 24.514923629117163 104.916853163067 1.4172083639601851 C 0.0 **** -0.24
9927 H 23.60196811922168 105.19989698559434 1.941495520704649 H 0.0 **** 0.06
9928 H 24.28467947912037 104.71230818504324 0.37163887775756166 H 0.0 **** 0.06
9929 H 24.93545709481549 104.02267179434807 1.878897587316004 H 0.0 **** 0.06
9930 H 25.23733803082598 105.73122218213865 1.478853702050202 H 0.0 **** 0.06
9931 C 89.63134125924256 84.27519254581688 79.83509926068518 C 0.0 **** -0.24
9932 H 89.46141089271211 84.97878852969603 79.02042637988578 H 0.0 **** 0.06
9933 H 89.03709251071237 84.57058887551045 80.70036283858775 H 0.0 **** 0.06
9934 H 90.68860268581503 84.27716034095505 80.10200379042493 H 0.0 **** 0.06
9935 H 89.33825894773076 83.27423243710592 79.51760403384225 H 0.0 **** 0.06
9936 C 118.45740049537952 36.664612758419125 6.630816525278419 C 0.0 **** -0.24
9937 H 118.70997529156429 36.43379681150759 7.666369333446056 H 0.0 **** 0.06
9938 H 117.7878181666425 35.89708311707413 6.241196978977314 H 0.0 **** 0.06
9939 H 119.36763345231626 36.690706991919726 6.0322510834245975 H 0.0 **** 0.06
9940 H 117.9639531020751 37.63545609504794 6.585171640999761 H 0.0 **** 0.06
9941 C 5.7481561427066055 15.71346126240995 18.040079345582626 C 0.0 **** -0.24
9942 H 6.430512444665709 16.47675385194846 18.41351855692099 H 0.0 **** 0.06
9943 H 5.233193176293781 16.08814803939481 17.155162646719248 H 0.0 **** 0.06
9944 H 5.0170480756910365 15.470787226922592 18.81034734781403 H 0.0 **** 0.06
9945 H 6.3126556838654295 14.818638189744838 17.779019061732754 H 0.0 **** 0.06
9946 C 59.17237371134937 16.01665281257081 112.21414986479064 C 0.0 **** -0.24
9947 H 58.537738113377195 16.712146667013386 112.76338617761184 H 0.0 **** 0.06
9948 H 60.0328225101814 16.55023779510175 111.81078094925215 H 0.0 **** 0.06
9949 H 58.603310813226734 15.57272938367052 111.39714313658554 H 0.0 **** 0.06
9950 H 59.5149611716167 15.229989003173387 112.88758846430834 H 0.0 **** 0.06
9951 C 56.99703375474176 89.01357687391894 104.03507386067324 C 0.0 **** -0.24
9952 H 56.47418353723611 89.78227396835132 103.4657452966068 H 0.0 **** 0.06
9953 H 57.45829600502989 88.30466523199664 103.34786213278252 H 0.0 **** 0.06
9954 H 56.28608933910126 88.49046446621924 104.67438755434031 H 0.0 **** 0.06
9955 H 57.7663852670868 89.47830416511428 104.6513403115215 H 0.0 **** 0.06
9956 C 26.812179321802233 31.21106797361074 110.4960813161627 C 0.0 **** -0.24
9957 H 26.61932888525243 30.876130495943357 111.51603242109812 H 0.0 **** 0.06
9958 H 26.250219945664213 32.12553746110058 110.30255129920016 H 0.0 **** 0.06
9959 H 26.50136961425325 30.437216723811446 109.7945949622898 H 0.0 **** 0.06
9960 H 27.877331376654055 31.4060594586619 110.37451262801775 H 0.0 **** 0.06
9961 C 35.647766630763954 49.27882142772654 59.0017589198481 C 0.0 **** -0.24
9962 H 35.089139888568525 48.34584190773114 58.93785383921909 H 0.0 **** 0.06
9963 H 36.08596159540056 49.37245650099831 59.99578218912848 H 0.0 **** 0.06
9964 H 34.975012088919186 50.1180166458023 58.82092649401886 H 0.0 **** 0.06
9965 H 36.44031391699676 49.280403896460626 58.25320639309757 H 0.0 **** 0.06
9966 C 82.53671335238889 16.97846336988269 88.01743183744634 C 0.0 **** -0.24
9967 H 81.79296342216449 17.34269305821227 87.30878570640698 H 0.0 **** 0.06
9968 H 82.07877570749835 16.875476571029807 89.00171201173328 H 0.0 **** 0.06
9969 H 83.36264383644834 17.686614834189868 88.07259364648394 H 0.0 **** 0.06
9970 H 82.90947967469168 16.009292502769334 87.68655928444423 H 0.0 **** 0.06
9971 C 91.20479404953306 22.622053668941376 79.05456348773538 C 0.0 **** -0.24
9972 H 91.09211133135295 23.24152595376829 79.9434167765005 H 0.0 **** 0.06
9973 H 91.46752015874856 23.252112548359122 78.20418978772824 H 0.0 **** 0.06
9974 H 90.2671144811977 22.105617126309696 78.84940771754731 H 0.0 **** 0.06
9975 H 91.9946806137477 21.888436170472417 79.2204255992192 H 0.0 **** 0.06
9976 C 94.76662470693995 45.433625209916045 82.41805142318663 C 0.0 **** -0.24
9977 H 95.2116821611749 46.31581434107218 81.95589033077601 H 0.0 **** 0.06
9978 H 95.12060181643545 45.345770935713404 83.44614359429846 H 0.0 **** 0.06
9979 H 95.05526563942959 44.5445411098477 81.85715975737253 H 0.0 **** 0.06
9980 H 93.68134955990584 45.530124131396946 82.41343328981137 H 0.0 **** 0.06
9981 C 37.55891959866375 24.021725529845696 117.66778895281055 C 0.0 **** -0.24
9982 H 37.10002261088974 23.30124275635029 118.34526421380582 H 0.0 **** 0.06
9983 H 36.893203220402086 24.876080910363413 117.5404970555432 H 0.0 **** 0.06
9984 H 37.7337002977559 23.54901328442618 116.70055242830662 H 0.0 **** 0.06
9985 H 38.508171494044234 24.358565033987432 118.0835527266384 H 0.0 **** 0.06
9986 C 98.09365582927876 75.45830710074529 111.43485402547057 C 0.0 **** -0.24
9987 H 97.12129073792806 75.81146520489028 111.77877272921145 H 0.0 **** 0.06
9988 H 98.87579355459354 76.1063758734939 111.82970461309051 H 0.0 **** 0.06
9989 H 98.1216208238603 75.47678315569286 110.3450355974033 H 0.0 **** 0.06
9990 H 98.25428984121623 74.43893466130973 111.78410328123556 H 0.0 **** 0.06
9991 C 55.14322490054764 68.59258834977865 96.79189370498273 C 0.0 **** -0.24
9992 H 56.172805612058426 68.93428454139507 96.68228585137112 H 0.0 **** 0.06
9993 H 54.54135470776288 68.98512809035452 95.97147401379411 H 0.0 **** 0.06
9994 H 54.742229838384446 68.94857329474982 97.7411145823705 H 0.0 **** 0.06
9995 H 55.118968313469225 67.503723977422 96.77236225402154 H 0.0 **** 0.06
9996 C 100.91501077927097 117.93591952153253 117.79034682721831 C 0.0 **** -0.24
9997 H 101.92025743952632 117.96896291944802 117.36994479386128 H 0.0 **** 0.06
9998 H 100.47428290585228 118.93235766866326 117.75935442394638 H 0.0 **** 0.06
9999 H 100.964700238718 117.59175788764088 118.82350088617896 H 0.0 **** 0.06
10000 H 100.30028719770465 117.24842778400378 117.20872096787882 H 0.0 **** 0.06
10001 C 96.96023180019944 6.338027496440503 21.364854148949206 C 0.0 **** -0.24
10002 H 96.47657680201598 7.2532364964260125 21.02200439281185 H 0.0 **** 0.06
10003 H 96.32671929020378 5.847738384071192 22.10288189631686 H 0.0 **** 0.06
10004 H 97.92268429944377 6.5827112759656075 21.8157806251526 H 0.0 **** 0.06
10005 H 97.11541451116446 5.670585487460784 20.516722610764674 H 0.0 **** 0.06
10006 C 50.325309174127696 50.43138062853426 4.267245018141807 C 0.0 **** -0.24
10007 H 49.25361499335436 50.305069073822594 4.111432368453109 H 0.0 **** 0.06
10008 H 50.70439899214997 49.604259319593794 4.867002291459414 H 0.0 **** 0.06
10009 H 50.50839130022484 51.3718959019142 4.786215619252744 H 0.0 **** 0.06
10010 H 50.83278317008281 50.443929239590865 3.302414321437851 H 0.0 **** 0.06
10011 C 68.46751294672774 84.229180650639 67.59067828753064 C 0.0 **** -0.24
10012 H 68.44105095943965 84.89314625832631 68.4551654478129 H 0.0 **** 0.06
10013 H 68.61914091308196 84.81716616959602 66.68561224326044 H 0.0 **** 0.06
10014 H 67.52372024546042 83.68820204693895 67.5199246691021 H 0.0 **** 0.06
10015 H 69.28657737340953 83.51888538769566 67.70409646165453 H 0.0 **** 0.06
10016 C 59.327573659251804 39.55163068380086 69.91611975437587 C 0.0 **** -0.24
10017 H 59.02921686980698 38.526491349556935 70.13845107101048 H 0.0 **** 0.06
10018 H 58.51869166151912 40.231151567888425 70.18382822990986 H 0.0 **** 0.06
10019 H 59.54461071907797 39.64346948669114 68.85234202236137 H 0.0 **** 0.06
10020 H 60.218723028684785 39.80203316763922 70.49202512061271 H 0.0 **** 0.06
10021 C 102.19809637615612 9.004373463740436 11.746286404196269 C 0.0 **** -0.24
10022 H 102.50586084144379 9.20326249127723 10.719732578505557 H 0.0 **** 0.06
10023 H 101.11517970008367 9.1075271129329 11.8259071266543 H 0.0 **** 0.06
10024 H 102.68155275458895 9.715855933205347 12.415932736456057 H 0.0 **** 0.06
10025 H 102.48723166855717 7.99031591792496 12.022495838512896 H 0.0 **** 0.06
10026 C 67.18172567120536 98.26920859447029 71.46218809968559 C 0.0 **** -0.24
10027 H 67.16640524009438 98.69588009248216 70.4587523275959 H 0.0 **** 0.06
10028 H 68.21344576217083 98.17207463887237 71.79893157695855 H 0.0 **** 0.06
10029 H 66.71044437554349 97.28723157520423 71.44626461100879 H 0.0 **** 0.06
10030 H 66.63735409499205 98.92333531724742 72.14243828897756 H 0.0 **** 0.06
10031 C 58.01133691006737 77.95592736918505 85.79908620635177 C 0.0 **** -0.24
10032 H 58.01773211413774 77.28281911514406 84.94182373558661 H 0.0 **** 0.06
10033 H 57.212571096872125 77.66541169443019 86.48207115054817 H 0.0 **** 0.06
10034 H 57.845360203042674 78.9774659096766 85.45834545590554 H 0.0 **** 0.06
10035 H 58.97033121635252 77.89623794969881 86.31530104254347 H 0.0 **** 0.06
10036 C 66.125475872478 111.40437908726382 93.7130811509767 C 0.0 **** -0.24
10037 H 65.63174591194581 112.37289778765683 93.63853734849124 H 0.0 **** 0.06
10038 H 65.4622102811073 110.69693911948474 94.21118258607945 H 0.0 **** 0.06
10039 H 67.04493024167198 111.50838643907873 94.2885024378181 H 0.0 **** 0.06
10040 H 66.36131895817866 111.04015113897908 92.71292734356558 H 0.0 **** 0.06
10041 C 89.1501414200259 99.98464041886027 40.06697364240822 C 0.0 **** -0.24
10042 H 89.32814017365251 99.83431008477356 39.001583161868034 H 0.0 **** 0.06
10043 H 89.28534196700687 99.04029393539383 40.594406206239626 H 0.0 **** 0.06
10044 H 88.13088268207798 100.34292304237502 40.216759653181136 H 0.0 **** 0.06
10045 H 89.8544274825268 100.72176801513393 40.452440385320855 H 0.0 **** 0.06
10046 C 81.22134753026285 90.35744085215157 13.275973467384347 C 0.0 **** -0.24
10047 H 81.55918438707363 89.39246928621543 13.652519142014597 H 0.0 **** 0.06
10048 H 82.07653938539215 91.0257690779338 13.171978826164093 H 0.0 **** 0.06
10049 H 80.50518426730184 90.78954019148091 13.97404211767551 H 0.0 **** 0.06
10050 H 80.74613989011311 90.22237588744562 12.304305453505378 H 0.0 **** 0.06
10051 C 104.09104293020721 71.0318482445467 60.85134082236505 C 0.0 **** -0.24
10052 H 104.3605631526257 70.10034768505056 60.35246589667961 H 0.0 **** 0.06
10053 H 104.883034446723 71.76582661413073 60.70335519256353 H 0.0 **** 0.06
10054 H 103.96111135495661 70.84748746662268 61.917732615376856 H 0.0 **** 0.06
10055 H 103.15848725185168 71.4119893925068 60.4328169216441 H 0.0 **** 0.06
10056 C 0.636471847648238 62.5183407012264 89.35817897012939 C 0.0 **** -0.24
10057 H 0.07355558012318397 62.13497723280981 90.20954571199437 H 0.0 **** 0.06
10058 H -0.05210602822188548 62.77070081469633 88.55099774807434 H 0.0 **** 0.06
10059 H 1.3365029433974769 61.75688519453255 89.01388612574218 H 0.0 **** 0.06
10060 H 1.1876909876201012 63.40990023637057 89.65792328030139 H 0.0 **** 0.06
10061 C 30.748341081270496 21.583834624637973 38.10009586093943 C 0.0 **** -0.24
10062 H 31.5693931198483 20.968483031425308 37.7332314538109 H 0.0 **** 0.06
10063 H 30.653375164636998 22.473477139636287 37.47539721894836 H 0.0 **** 0.06
10064 H 30.949241703738252 21.88192671068643 39.1280985335009 H 0.0 **** 0.06
10065 H 29.821298744406988 21.012424562072 38.061643632276514 H 0.0 **** 0.06
10066 C 2.470101793303087 46.737093331146916 34.03417974285526 C 0.0 **** -0.24
10067 H 2.2185122158112307 47.76864651909305 33.78491611164611 H 0.0 **** 0.06
10068 H 3.3837924612008834 46.719959507119405 34.627770787198074 H 0.0 **** 0.06
10069 H 2.6220889080335468 46.169627802826284 33.1159224952892 H 0.0 **** 0.06
10070 H 1.6557325296367793 46.2924210108762 34.605718690829235 H 0.0 **** 0.06
10071 C 78.72612930570438 116.33896205761253 50.56376056631734 C 0.0 **** -0.24
10072 H 78.09329309376932 115.74855613550766 51.226824500695585 H 0.0 **** 0.06
10073 H 79.5276038223646 116.79960870543816 51.14180802885349 H 0.0 **** 0.06
10074 H 78.12831304506307 117.11602385226182 50.087447377412616 H 0.0 **** 0.06
10075 H 79.15537215011184 115.69070365001147 49.8000026400979 H 0.0 **** 0.06
10076 C 71.17945875061912 78.26687466457568 15.334093681847122 C 0.0 **** -0.24
10077 H 70.72519073865064 78.38560869650004 14.351386574383753 H 0.0 **** 0.06
10078 H 72.2556655756305 78.12952333497918 15.222482142710959 H 0.0 **** 0.06
10079 H 70.75176701644253 77.39411575565492 15.828908108369092 H 0.0 **** 0.06
10080 H 70.986085931238 79.15523917684342 15.934005275498691 H 0.0 **** 0.06
10081 C 54.541280188877465 71.35451877684591 90.61347510091966 C 0.0 **** -0.24
10082 H 53.67734090194544 71.42647002137744 91.27508341848898 H 0.0 **** 0.06
10083 H 54.276887997323826 70.77079003697054 89.73238882287941 H 0.0 **** 0.06
10084 H 55.36146333853532 70.86730792596188 91.1409424159134 H 0.0 **** 0.06
10085 H 54.84907885151182 72.35517496080524 90.30924034975078 H 0.0 **** 0.06
10086 C 50.28493212351353 14.776436437131892 32.800894417397814 C 0.0 **** -0.24
10087 H 51.34638658164269 14.673752231309134 32.57539063651765 H 0.0 **** 0.06
10088 H 50.16201231350837 15.091084606779628 33.83801249841517 H 0.0 **** 0.06
10089 H 49.78794847825222 13.81755167085521 32.65039561629828 H 0.0 **** 0.06
10090 H 49.84338016284585 15.521952418455253 32.13961584231441 H 0.0 **** 0.06
10091 C 19.49005931886319 50.87032819614635 0.4845850053624936 C 0.0 **** -0.24
10092 H 19.46169115511472 49.80296937562451 0.26596215590744876 H 0.0 **** 0.06
10093 H 18.482758877881935 51.222634694726025 0.7061171861601903 H 0.0 **** 0.06
10094 H 19.88136397783711 51.40702450990164 -0.38071806629903726 H 0.0 **** 0.06
10095 H 20.135041316657436 51.04868407935649 1.3442185862425688 H 0.0 **** 0.06
10096 C 30.361966165065212 80.59340555486023 14.589272168351982 C 0.0 **** -0.24
10097 H 31.439927605621676 80.75018734645576 14.527068396601496 H 0.0 **** 0.06
10098 H 30.078651315563377 80.42830763268734 15.6285074199251 H 0.0 **** 0.06
10099 H 30.08728859215097 79.72312727238219 13.993995377629545 H 0.0 **** 0.06
10100 H 29.845021467812728 81.47329786454824 14.207105664194728 H 0.0 **** 0.06
10101 C 100.1718951022433 57.898846252105784 37.037141944130155 C 0.0 **** -0.24
10102 H 99.84576555041528 57.977485543971824 35.999532186352155 H 0.0 **** 0.06
10103 H 99.40473954119565 57.39060798945599 37.62185967040335 H 0.0 **** 0.06
10104 H 100.33641099614835 58.89803969451606 37.44213285098249 H 0.0 **** 0.06
10105 H 101.1006964114263 57.33026544689352 37.08305014544976 H 0.0 **** 0.06
10106 C 68.47655336693026 101.54276298812479 69.73905047723261 C 0.0 **** -0.24
10107 H 67.84088963170271 102.42791743360175 69.74262286726642 H 0.0 **** 0.06
10108 H 68.6861538721146 101.24211844163347 70.76668960961456 H 0.0 **** 0.06
10109 H 69.41284071789892 101.76978819689506 69.22884645678721 H 0.0 **** 0.06
10110 H 67.9675354864907 100.73138188767248 69.21927644245528 H 0.0 **** 0.06
10111 C 38.25006077555844 70.12022237656285 33.73170332547761 C 0.0 **** -0.24
10112 H 38.42291508709595 69.18408123987948 33.20031857028425 H 0.0 **** 0.06
10113 H 39.087611715849185 70.31624396211285 34.40154476864406 H 0.0 **** 0.06
10114 H 37.33040551175914 70.04299143470854 34.312679413283064 H 0.0 **** 0.06
10115 H 38.15944941442106 70.93479398691363 33.01339265526437 H 0.0 **** 0.06
10116 C 48.397641991480334 27.20331284082272 83.0981302565223 C 0.0 **** -0.24
10117 H 49.194454983466606 26.685953640928744 83.63015651353265 H 0.0 **** 0.06
10118 H 47.537447968953224 26.541497807480027 82.99775262468484 H 0.0 **** 0.06
10119 H 48.749720936537734 27.493854038258462 82.108442030937 H 0.0 **** 0.06
10120 H 48.107342054109196 28.094475306760216 83.65635968049202 H 0.0 **** 0.06
10121 C 6.321702500006154 81.96936989227507 60.683301866075794 C 0.0 **** -0.24
10122 H 5.854458315573822 81.87203125216513 61.66345473847005 H 0.0 **** 0.06
10123 H 6.477203347450796 83.02576446345492 60.45907942811559 H 0.0 **** 0.06
10124 H 5.672360860879223 81.52808793069053 59.92661680296993 H 0.0 **** 0.06
10125 H 7.281351560036484 81.45335304629532 60.68497899858758 H 0.0 **** 0.06
10126 C 84.34155743719444 32.72747105895278 44.21506770313269 C 0.0 **** -0.24
10127 H 84.03564533794938 32.09342816565309 45.04600804172097 H 0.0 **** 0.06
10128 H 83.55772103393727 32.735186032963306 43.45722564754851 H 0.0 **** 0.06
10129 H 85.26247720860519 32.339098958728385 43.78079311080634 H 0.0 **** 0.06
10130 H 84.50887736551195 33.742483925577865 44.57433980862564 H 0.0 **** 0.06
10131 C 49.183227057745285 83.2037827000382 33.597128122497445 C 0.0 **** -0.24
10132 H 48.638680244578836 84.1128927008645 33.33916217676435 H 0.0 **** 0.06
10133 H 50.247578931603584 83.42722529779928 33.667441995149744 H 0.0 **** 0.06
10134 H 49.01820788129726 82.45137165381169 32.82656676833519 H 0.0 **** 0.06
10135 H 48.82604923786266 82.82695756263121 34.55481142593824 H 0.0 **** 0.06
10136 C 87.08403798257842 24.92699993524684 23.08993304167899 C 0.0 **** -0.24
10137 H 87.55474178957996 25.901413175043558 23.22731003966902 H 0.0 **** 0.06
10138 H 87.21329473388641 24.331856665641624 23.993794057738 H 0.0 **** 0.06
10139 H 87.54916334866749 24.415373981508196 22.24740242609664 H 0.0 **** 0.06
10140 H 86.02167673420178 25.062442090426032 22.891455166028607 H 0.0 **** 0.06
10141 C 38.802705071440215 82.57820227126467 48.71303450813093 C 0.0 **** -0.24
10142 H 39.233945529728175 82.68804704212585 49.70807036895127 H 0.0 **** 0.06
10143 H 39.558877717986576 82.19224175727811 48.03000015145028 H 0.0 **** 0.06
10144 H 38.45464442025556 83.54929917864428 48.36005407252503 H 0.0 **** 0.06
10145 H 37.96272764744543 81.88495962243235 48.75527330823621 H 0.0 **** 0.06
10146 C 98.6609006576291 65.41394215691611 33.80875276361293 C 0.0 **** -0.24
10147 H 97.59033854147225 65.27112706269497 33.65676835275723 H 0.0 **** 0.06
10148 H 99.03436241671756 64.65406015573927 34.49449919765233 H 0.0 **** 0.06
10149 H 98.83838010678693 66.40406948231274 34.22890929426984 H 0.0 **** 0.06
10150 H 99.17775508410205 65.32697903010697 32.852569445695806 H 0.0 **** 0.06
10151 C 86.65241671533249 111.25756178071236 36.20420557338343 C 0.0 **** -0.24
10152 H 85.77752889539391 111.57092183520291 36.77481175378944 H 0.0 **** 0.06
10153 H 86.45925370402512 110.28690096548394 35.74767387555677 H 0.0 **** 0.06
10154 H 87.51208514334704 111.18207605416382 36.870483818949666 H 0.0 **** 0.06
10155 H 86.85929853037209 111.9918247966504 35.42510522280398 H 0.0 **** 0.06
10156 C 49.901352340087755 39.358443393233586 2.8428994978189372 C 0.0 **** -0.24
10157 H 49.724711298807506 38.84048736559714 1.9005540040355289 H 0.0 **** 0.06
10158 H 49.490531008680904 40.36623735968311 2.786964787561315 H 0.0 **** 0.06
10159 H 50.973661884157195 39.41316712558282 3.031526491598413 H 0.0 **** 0.06
10160 H 49.41815168346176 38.81225336955859 3.653351337282377 H 0.0 **** 0.06
10161 C 11.016492941909476 94.15968714073739 9.101348041022348 C 0.0 **** -0.24
10162 H 10.407675934941125 94.62177394581693 8.32493246836178 H 0.0 **** 0.06
10163 H 10.455087489563578 93.34985703503506 9.569465340630956 H 0.0 **** 0.06
10164 H 11.274210011648325 94.90486253705038 9.853922361715235 H 0.0 **** 0.06
10165 H 11.928879853650773 93.75990737198714 8.658645163007336 H 0.0 **** 0.06
10166 C 58.613853880165635 37.23034012691426 84.93278831648203 C 0.0 **** -0.24
10167 H 59.20523226208016 37.35754995288586 84.0253309267537 H 0.0 **** 0.06
10168 H 58.052339880331914 36.298575587396115 84.87227894517562 H 0.0 **** 0.06
10169 H 57.92213809708633 38.06618384722948 85.03516550954839 H 0.0 **** 0.06
10170 H 59.27722256345581 37.19966427011383 85.79685400966704 H 0.0 **** 0.06
10171 C 51.888570284042 104.41072189462349 70.13107094882855 C 0.0 **** -0.24
10172 H 51.407893575336125 103.48730374365857 70.45482304005935 H 0.0 **** 0.06
10173 H 51.14668206407835 105.20735745014264 70.07914592847538 H 0.0 **** 0.06
10174 H 52.33262023493995 104.26252641235803 69.14622762862254 H 0.0 **** 0.06
10175 H 52.667298221665234 104.6839576112221 70.84270187557857 H 0.0 **** 0.06
10176 C 91.48756248073317 51.04021542364211 59.59842114831545 C 0.0 **** -0.24
10177 H 90.55778998559947 50.60061688235581 59.2356610757779 H 0.0 **** 0.06
10178 H 91.3505726950921 52.11186002116841 59.743211435902396 H 0.0 **** 0.06
10179 H 92.27842510806826 50.86924063932125 58.86850371440704 H 0.0 **** 0.06
10180 H 91.7617953925982 50.57636287732035 60.54700631370625 H 0.0 **** 0.06
10181 C 81.3383578050632 33.06423087055516 117.2818322294614 C 0.0 **** -0.24
10182 H 81.59744523102893 32.10497660922563 116.83318585988907 H 0.0 **** 0.06
10183 H 80.4467996341393 33.46281387918097 116.7980686891449 H 0.0 **** 0.06
10184 H 82.16686536600108 33.76131235693845 117.14972510848466 H 0.0 **** 0.06
10185 H 81.14563652342099 32.92690606979991 118.34593513254133 H 0.0 **** 0.06
10186 C 79.19195432928285 6.969615503372037 64.11094648407868 C 0.0 **** -0.24
10187 H 80.24010350552922 6.917795660740886 64.40468028697302 H 0.0 **** 0.06
10188 H 79.02728201860609 6.336422088724891 63.23941583601606 H 0.0 **** 0.06
10189 H 78.93363847106968 8.000824409556245 63.86570210600981 H 0.0 **** 0.06
10190 H 78.56674258210754 6.624743219077931 64.93448394182866 H 0.0 **** 0.06
10191 C 41.3751051635377 27.090796693980934 60.20689645300956 C 0.0 **** -0.24
10192 H 40.641649708314134 26.803366762451788 60.96085782684389 H 0.0 **** 0.06
10193 H 42.170260701796025 27.669969143651308 60.67672358411892 H 0.0 **** 0.06
10194 H 40.890429230466964 27.694366636280705 59.44008351520148 H 0.0 **** 0.06
10195 H 41.79815349234012 26.195662295185635 59.7513220132754 H 0.0 **** 0.06
10196 C 16.421561288646473 93.11691324589401 8.952635517974983 C 0.0 **** -0.24
10197 H 16.620462341799453 94.01411923962033 9.539876031382533 H 0.0 **** 0.06
10198 H 17.315144179748728 92.49165193797165 8.932496378022847 H 0.0 **** 0.06
10199 H 16.152997331779062 93.40087887541404 7.935629406504276 H 0.0 **** 0.06
10200 H 15.59962767030217 92.56158623823111 9.405131536433743 H 0.0 **** 0.06
10201 C 2.8261979107509436 45.738700567001615 29.856537965523003 C 0.0 **** -0.24
10202 H 2.655515457686196 46.19452416595004 30.83113677370782 H 0.0 **** 0.06
10203 H 2.13718278397287 46.16806510767907 29.12908843063093 H 0.0 **** 0.06
10204 H 2.6599844072593317 44.662815373119315 29.92406414211341 H 0.0 **** 0.06
10205 H 3.852853918354901 45.9282037891341 29.541721201064504 H 0.0 **** 0.06
10206 C 67.18868619766124 117.1415589115355 93.77286851104316 C 0.0 **** -0.24
10207 H 68.1251239563274 117.68984122596845 93.8772400387312 H 0.0 **** 0.06
10208 H 67.39168540313034 116.14974537282801 93.36769589011101 H 0.0 **** 0.06
10209 H 66.52479683647374 117.6812430893772 93.09841806615941 H 0.0 **** 0.06
10210 H 66.71430355357592 117.04525919850633 94.75002310600195 H 0.0 **** 0.06
10211 C 87.32287847365677 99.05622534226117 75.30677590364962 C 0.0 **** -0.24
10212 H 87.09145303454486 98.00300216468526 75.14974807817413 H 0.0 **** 0.06
10213 H 88.25614058162074 99.1439131625801 75.8628093899544 H 0.0 **** 0.06
10214 H 86.516609967298 99.52366913235994 75.8736851350655 H 0.0 **** 0.06
10215 H 87.42496260895163 99.55402333649414 74.342959271361 H 0.0 **** 0.06
10216 C 75.60632326408526 0.041267618334655864 74.7955668173058 C 0.0 **** -0.24
10217 H 75.47533873579735 0.33569568956585627 75.83704737798709 H 0.0 **** 0.06
10218 H 74.82650642737116 -0.6679819633470334 74.51766518461613 H 0.0 **** 0.06
10219 H 76.58366186449268 -0.4266220113979493 74.67155389439327 H 0.0 **** 0.06
10220 H 75.54158851565646 0.922093113404566 74.15748267262268 H 0.0 **** 0.06
10221 C 6.40662466776045 2.6800824541935526 40.42005956177363 C 0.0 **** -0.24
10222 H 6.718356432014897 2.3706142426459564 41.41777862007112 H 0.0 **** 0.06
10223 H 6.492705159248542 3.763698272199065 40.33301048329059 H 0.0 **** 0.06
10224 H 5.371121326049517 2.3835997369650954 40.2556717774614 H 0.0 **** 0.06
10225 H 7.044739815979035 2.203483096134619 39.6763629576931 H 0.0 **** 0.06
10226 C 63.01541682887443 26.8487144485413 64.7043409635483 C 0.0 **** -0.24
10227 H 62.153873605003135 26.20473103568426 64.88441950903604 H 0.0 **** 0.06
10228 H 62.94590470275063 27.73225562066071 65.33969731420783 H 0.0 **** 0.06
10229 H 63.02754881596662 27.152944348219535 63.65828146027408 H 0.0 **** 0.06
10230 H 63.930681074568476 26.304686595953314 64.93570987443005 H 0.0 **** 0.06
10231 C 82.2056185640864 43.79711293610109 91.39993558300571 C 0.0 **** -0.24
10232 H 83.08801373251552 43.47583804867154 90.84731932266249 H 0.0 **** 0.06
10233 H 81.76689552442383 44.667035385563544 90.91073151248432 H 0.0 **** 0.06
10234 H 82.49012642399248 44.05926657016553 92.41989510639425 H 0.0 **** 0.06
10235 H 81.47585852322064 42.98745186666129 91.42407763428707 H 0.0 **** 0.06
10236 C 41.311242887248696 64.6298398300363 49.977984944046796 C 0.0 **** -0.24
10237 H 41.887078960177774 65.15135287059229 49.213333033808496 H 0.0 **** 0.06
10238 H 40.247791358605866 64.71287058624645 49.75017931723187 H 0.0 **** 0.06
10239 H 41.50991835961071 65.07891247073067 50.951285211038545 H 0.0 **** 0.06
10240 H 41.59786819710703 63.57910723993813 49.99657078534985 H 0.0 **** 0.06
10241 C 76.5367995651722 1.1971962088496753 112.4862380868683 C 0.0 **** -0.24
10242 H 76.26641685149337 1.2539902461488595 111.43221382354339 H 0.0 **** 0.06
10243 H 77.1911354122347 2.031038021079226 112.73946124821758 H 0.0 **** 0.06
10244 H 77.05527014010772 0.25769882867115257 112.67770219875203 H 0.0 **** 0.06
10245 H 75.63450689188016 1.243892570965528 113.09611837046585 H 0.0 **** 0.06
10246 C 97.68572360154798 49.5843121734065 86.33510428174253 C 0.0 **** -0.24
10247 H 98.50491054093231 50.12959879520032 85.86745187967085 H 0.0 **** 0.06
10248 H 97.4914311828953 49.99936062545342 87.32434481747788 H 0.0 **** 0.06
10249 H 97.95606596710371 48.532054967894325 86.4276266801439 H 0.0 **** 0.06
10250 H 96.791014356539 49.675483698264316 85.71921655572993 H 0.0 **** 0.06
10251 C 107.69774655961959 63.42941557688124 70.57501286782579 C 0.0 **** -0.24
10252 H 108.31639708585968 62.80276174027347 71.21866817863375 H 0.0 **** 0.06
10253 H 106.79498065809696 63.72282420891298 71.11320319141754 H 0.0 **** 0.06
10254 H 107.4221244584869 62.87063007889873 69.68040746949185 H 0.0 **** 0.06
10255 H 108.2570215470625 64.31990271622476 70.28932305407142 H 0.0 **** 0.06
10256 C 117.85210743843868 60.275749206635105 71.05259205038442 C 0.0 **** -0.24
10257 H 116.86993396841132 60.27693359960009 70.57902527604261 H 0.0 **** 0.06
10258 H 118.24583895542634 61.29201097758661 71.07226640784006 H 0.0 **** 0.06
10259 H 118.52638777992462 59.63385343751093 70.48746083363716 H 0.0 **** 0.06
10260 H 117.76190869044063 59.90115465494369 72.07188917937555 H 0.0 **** 0.06
10261 C 16.03198387299483 77.80975305477955 77.59968879761448 C 0.0 **** -0.24
10262 H 16.701803352843996 78.44355737576697 78.1801407497959 H 0.0 **** 0.06
10263 H 15.967182279773994 78.18807665684244 76.5788016055327 H 0.0 **** 0.06
10264 H 15.041008026195044 77.81818493619016 78.05357242186915 H 0.0 **** 0.06
10265 H 16.41645776473314 76.79046607171321 77.58581886751375 H 0.0 **** 0.06
10266 C 3.380421363771248 19.437542440796904 89.49560006464881 C 0.0 **** -0.24
10267 H 4.3373398023067296 19.516297366530637 88.98030471905565 H 0.0 **** 0.06
10268 H 3.5455502852490355 19.10055438357881 90.51906675688184 H 0.0 **** 0.06
10269 H 2.7462217205583954 18.720104328547592 88.97350331175832 H 0.0 **** 0.06
10270 H 2.892494684268982 20.412014981790406 89.50643394687799 H 0.0 **** 0.06
10271 C 31.59854039859281 15.43495103721284 97.3723964866843 C 0.0 **** -0.24
10272 H 30.8049763057154 15.644554410253107 98.0903457089941 H 0.0 **** 0.06
10273 H 31.282985017303787 14.63032141858821 96.70687514669874 H 0.0 **** 0.06
10274 H 32.50033843832609 15.133847329740092 97.90523736885405 H 0.0 **** 0.06
10275 H 31.803816716349743 16.33049139963677 96.78644203023475 H 0.0 **** 0.06
10276 C 115.74281232885866 99.39261590060104 7.324155729113585 C 0.0 **** -0.24
10277 H 115.9697908528162 100.40573374278827 6.993756731731622 H 0.0 **** 0.06
10278 H 114.71248280717745 99.1489569536781 7.068689776722579 H 0.0 **** 0.06
10279 H 115.8756141011242 99.32511920656091 8.404138359193055 H 0.0 **** 0.06
10280 H 116.41688475348263 98.69069657085234 6.831297433375653 H 0.0 **** 0.06
10281 C 118.66899117055783 5.004329530134015 64.83123404710798 C 0.0 **** -0.24
10282 H 119.16781663579647 4.564744389819708 65.69479505313473 H 0.0 **** 0.06
10283 H 119.27264255056053 5.824573011568589 64.44167498679542 H 0.0 **** 0.06
10284 H 117.69130336525419 5.381908239094969 65.12826495297347 H 0.0 **** 0.06
10285 H 118.54594861465105 4.24524657329377 64.05814335594465 H 0.0 **** 0.06
10286 C 13.384268545702582 35.530362922021425 56.030510571643816 C 0.0 **** -0.24
10287 H 12.767373926028228 36.28433637180564 56.51908053897148 H 0.0 **** 0.06
10288 H 12.92049483590327 34.550649219092804 56.147393435928564 H 0.0 **** 0.06
10289 H 14.374329974063116 35.52128254488713 56.48489741796638 H 0.0 **** 0.06
10290 H 13.47280510818564 35.76637704613705 54.97013272852337 H 0.0 **** 0.06
10291 C 117.2867243477543 40.78816010196647 99.07071442420784 C 0.0 **** -0.24
10292 H 116.75470414379676 40.510150466315764 98.16057116679258 H 0.0 **** 0.06
10293 H 117.19827857732079 41.8637099537292 99.2278433603027 H 0.0 **** 0.06
10294 H 118.33800808944163 40.51951843374428 98.97271110029664 H 0.0 **** 0.06
10295 H 116.8543373502414 40.25973590873042 99.92021128116289 H 0.0 **** 0.06
10296 C 88.51774884741891 14.10680872616297 52.437766433940844 C 0.0 **** -0.24
10297 H 89.0557017761719 14.092657010047187 51.489797050137476 H 0.0 **** 0.06
10298 H 87.92609592109173 13.195596084743308 52.53278738709061 H 0.0 **** 0.06
10299 H 87.85756491330883 14.974196072480257 52.46673173845024 H 0.0 **** 0.06
10300 H 89.23098075703132 14.164933508644523 53.25986454944723 H 0.0 **** 0.06
10301 C 115.895163076854 15.512922438661576 21.636732623096975 C 0.0 **** -0.24
10302 H 116.64896642506542 15.633410411887809 22.414387233778598 H 0.0 **** 0.06
10303 H 115.04264574676053 16.15770581119756 21.85467593343452 H 0.0 **** 0.06
10304 H 115.56763565867865 14.473934078528288 21.60612994430403 H 0.0 **** 0.06
10305 H 116.3217714390899 15.78891428190218 20.6725685509644 H 0.0 **** 0.06
10306 C 50.06314179301313 51.668735287526616 73.86383075345057 C 0.0 **** -0.24
10307 H 50.782974500718126 50.850061834062686 73.85901031170869 H 0.0 **** 0.06
10308 H 50.41474690218041 52.45732302832781 74.52853726488655 H 0.0 **** 0.06
10309 H 49.09823919158501 51.30228365576056 74.21275578873255 H 0.0 **** 0.06
10310 H 49.957919501320106 52.0650348600841 72.85391517057298 H 0.0 **** 0.06
10311 C 52.35590399375906 117.25807612613383 95.96512082268478 C 0.0 **** -0.24
10312 H 52.698716108506346 116.33620333633223 95.49589918038015 H 0.0 **** 0.06
10313 H 51.41325692387409 117.07464315654138 96.48084984327659 H 0.0 **** 0.06
10314 H 52.20935161967833 118.02132069579017 95.20070554792096 H 0.0 **** 0.06
10315 H 53.10300375315643 117.60039988050781 96.68183556361038 H 0.0 **** 0.06
10316 C 28.089931416332547 49.69341466641791 97.15851841208402 C 0.0 **** -0.24
10317 H 27.117468266374658 49.50384977656583 97.6130150002528 H 0.0 **** 0.06
10318 H 28.12488954670016 50.71955474472526 96.79099411929107 H 0.0 **** 0.06
10319 H 28.24325892008676 49.00415881614012 96.32787730743215 H 0.0 **** 0.06
10320 H 28.87288615798468 49.54680510017732 97.90222134188511 H 0.0 **** 0.06
10321 C 118.80903259259631 87.87710233910826 23.88128547015009 C 0.0 **** -0.24
10322 H 118.7318934913893 87.83829616201109 22.794473969036673 H 0.0 **** 0.06
10323 H 119.5774962891395 87.17954675368719 24.215676514388633 H 0.0 **** 0.06
10324 H 117.85139622292402 87.60286730497575 24.32334686253442 H 0.0 **** 0.06
10325 H 119.07633837030535 88.88758324787207 24.189644829641054 H 0.0 **** 0.06
10326 C 60.82004394094616 104.25728959863918 6.812101817975531 C 0.0 **** -0.24
10327 H 60.50846034129312 103.28564060405634 7.197696896333497 H 0.0 **** 0.06
10328 H 61.31863002911468 104.12400341763211 5.851977200472348 H 0.0 **** 0.06
10329 H 61.50750161815497 104.72480138041948 7.518139590374346 H 0.0 **** 0.06
10330 H 59.944763494479965 104.89355568744489 6.682590616514915 H 0.0 **** 0.06
10331 C 27.516788135833238 34.35182019440429 18.071783918017104 C 0.0 **** -0.24
10332 H 27.353128485094345 35.387690571159055 17.77321616958659 H 0.0 **** 0.06
10333 H 28.216536109575145 34.32220466010149 18.908072365866417 H 0.0 **** 0.06
10334 H 27.928811881942153 33.793568626264516 17.231817775163563 H 0.0 **** 0.06
10335 H 26.568708424409706 33.90699379315718 18.374981766119333 H 0.0 **** 0.06
10336 C 9.6599872835173 36.12892961277697 60.906926472458935 C 0.0 **** -0.24
10337 H 10.049413931786482 37.1251897690135 61.11526064142606 H 0.0 **** 0.06
10338 H 9.958994467343459 35.44714457592107 61.703491268801 H 0.0 **** 0.06
10339 H 10.058850810364259 35.77504676045078 59.95649743462698 H 0.0 **** 0.06
10340 H 8.572165145803886 36.168610857392764 60.85082867082099 H 0.0 **** 0.06
10341 C 58.81659979932746 11.032175038769026 20.75184057027468 C 0.0 **** -0.24
10342 H 57.76033796227577 11.020858613416294 20.48207499072356 H 0.0 **** 0.06
10343 H 59.41303026071853 11.275434622582821 19.87183425219075 H 0.0 **** 0.06
10344 H 59.10609487108971 10.051238951552676 21.12716375853921 H 0.0 **** 0.06
10345 H 58.98558966973147 11.782113110603234 21.524474294037304 H 0.0 **** 0.06
10346 C 27.479754695225495 50.61151714418849 104.1149105004539 C 0.0 **** -0.24
10347 H 27.155634255050416 50.67203155556398 105.15363976760827 H 0.0 **** 0.06
10348 H 27.946322075513763 51.5528280640941 103.82530184561838 H 0.0 **** 0.06
10349 H 26.617987707613224 50.42032292069982 103.47534970976733 H 0.0 **** 0.06
10350 H 28.199966662112445 49.79964463201592 104.00698275962938 H 0.0 **** 0.06
10351 C 81.54300443891341 32.307756372768864 80.83705065872061 C 0.0 **** -0.24
10352 H 81.17255526652289 33.08271166356988 81.50847996000181 H 0.0 **** 0.06
10353 H 82.33900076970434 31.750178723745393 81.33071510149034 H 0.0 **** 0.06
10354 H 81.93159158664542 32.76994802297415 79.92945962175435 H 0.0 **** 0.06
10355 H 80.72934706983969 31.63047412970701 80.58028435480273 H 0.0 **** 0.06
10356 C 106.12065152575559 77.9037243014184 113.92418187425918 C 0.0 **** -0.24
10357 H 106.12125309146714 76.84900608340237 113.64767557443457 H 0.0 **** 0.06
10358 H 106.26592608451793 77.99774975723392 115.00088524650752 H 0.0 **** 0.06
10359 H 105.16563996566563 78.35066722230783 113.64546410311351 H 0.0 **** 0.06
10360 H 106.92833804934173 78.41617885858298 113.4015965957204 H 0.0 **** 0.06
10361 C 67.13965629787555 47.36583183370715 68.54855253410699 C 0.0 **** -0.24
10362 H 66.42215146087773 48.08259822369769 68.14905244136759 H 0.0 **** 0.06
10363 H 67.85272402184145 47.09201390709393 67.77074101924273 H 0.0 **** 0.06
10364 H 66.61174110688137 46.474865926862435 68.88904173127565 H 0.0 **** 0.06
10365 H 67.6721556100384 47.814491269987826 69.38751188783269 H 0.0 **** 0.06
10366 C 37.04437711036411 8.630803672272009 19.4874361409358 C 0.0 **** -0.24
10367 H 37.46853529096222 9.629530327085064 19.38257675349746 H 0.0 **** 0.06
10368 H 36.41747640874155 8.59527688768182 20.37943559950963 H 0.0 **** 0.06
10369 H 37.84999677346565 7.903212567714661 19.58001392788292 H 0.0 **** 0.06
10370 H 36.4423366627708 8.397518703569716 18.60942134980416 H 0.0 **** 0.06
10371 C 49.05419965333925 79.48692620159059 82.19802324946181 C 0.0 **** -0.24
10372 H 48.131176052286776 79.9813836016983 82.50243570096416 H 0.0 **** 0.06
10373 H 48.97240021460124 78.41635443142928 82.39038126554965 H 0.0 **** 0.06
10374 H 49.88915127620601 79.89644665933176 82.76506138815313 H 0.0 **** 0.06
10375 H 49.22010089481165 79.65282065423591 81.13334893043924 H 0.0 **** 0.06
10376 C 17.60326218242747 3.6988503374512245 58.51668565936962 C 0.0 **** -0.24
10377 H 18.199326138743373 3.8973901471692454 57.62529778517264 H 0.0 **** 0.06
10378 H 16.648035884028644 4.218777234850604 58.4377530129809 H 0.0 **** 0.06
10379 H 18.139765327089407 4.052957097655064 59.397512773405005 H 0.0 **** 0.06
10380 H 17.42826715720898 2.6264629523809795 58.604609616832654 H 0.0 **** 0.06
10381 C 65.23906536015059 25.926868327240612 104.34337266052856 C 0.0 **** -0.24
10382 H 64.18656680390782 25.899013205025618 104.62859459975851 H 0.0 **** 0.06
10383 H 65.78138713901265 26.58484528114635 105.02327048821405 H 0.0 **** 0.06
10384 H 65.32968433277023 26.303236474747656 103.3245131122953 H 0.0 **** 0.06
10385 H 65.6567275694253 24.92253353737525 104.39877452512852 H 0.0 **** 0.06
10386 C 17.16975159952672 73.61520876856312 8.890323969479894 C 0.0 **** -0.24
10387 H 17.231308083978135 72.54308333616393 9.077346514925551 H 0.0 **** 0.06
10388 H 18.138518409247183 73.98015695806814 8.546024126798542 H 0.0 **** 0.06
10389 H 16.893564142374203 74.12949864503824 9.811016100921336 H 0.0 **** 0.06
10390 H 16.416029676981083 73.80696685653228 8.12616514461034 H 0.0 **** 0.06
10391 C 112.54958467825423 53.92528261586759 64.72283751513055 C 0.0 **** -0.24
10392 H 111.65752031399771 53.92260614389298 64.09599653717407 H 0.0 **** 0.06
10393 H 112.26762782385552 54.139900914250774 65.75398005097964 H 0.0 **** 0.06
10394 H 113.2403114734947 54.6902549967524 64.3672065849222 H 0.0 **** 0.06
10395 H 113.03146471531272 52.94898291360957 64.67254757043384 H 0.0 **** 0.06
10396 C 107.0943711167964 100.06240606854658 106.25701843875277 C 0.0 **** -0.24
10397 H 106.07422319991983 99.70807873814408 106.11109754560027 H 0.0 **** 0.06
10398 H 107.2322333558719 101.0018253870461 105.7206752843224 H 0.0 **** 0.06
10399 H 107.79484993585638 99.31972597696722 105.87572295332257 H 0.0 **** 0.06
10400 H 107.27535932378336 100.22015893871708 107.32002777198204 H 0.0 **** 0.06
10401 C 54.19108873188236 54.66713833325551 80.39017801646187 C 0.0 **** -0.24
10402 H 54.843674973585735 54.55378985863172 81.25590019758027 H 0.0 **** 0.06
10403 H 54.78600667076472 54.61274036026171 79.47800855590512 H 0.0 **** 0.06
10404 H 53.68826698789073 55.63332046839576 80.43893230418743 H 0.0 **** 0.06
10405 H 53.44848010045325 53.87031255771234 80.38892361637468 H 0.0 **** 0.06
10406 C 41.28057907036373 60.1576193836965 30.39440185213465 C 0.0 **** -0.24
10407 H 41.873419940140195 59.24244521043653 30.36146826371754 H 0.0 **** 0.06
10408 H 41.16476061542323 60.4770189277512 31.429910211758568 H 0.0 **** 0.06
10409 H 40.29927429347157 59.96996280763176 29.959011806058868 H 0.0 **** 0.06
10410 H 41.787080970386114 60.938041829403176 29.82706935379497 H 0.0 **** 0.06
10411 C 96.12309536860477 107.13487593535675 60.91524790568578 C 0.0 **** -0.24
10412 H 95.62502150968254 106.79761434992952 60.006574373213816 H 0.0 **** 0.06
10413 H 96.03623517202817 106.36669366616493 61.684850390202364 H 0.0 **** 0.06
10414 H 95.65480511341406 108.05453766847495 61.2663264098016 H 0.0 **** 0.06
10415 H 97.1767505062466 107.32074041515816 60.70458496518673 H 0.0 **** 0.06
10416 C 21.703273073845708 93.48929858577853 53.76351712517521 C 0.0 **** -0.24
10417 H 21.421229286187383 94.46009430683733 53.35531182191113 H 0.0 **** 0.06
10418 H 22.619325222384035 93.59254678500105 54.34447047427824 H 0.0 **** 0.06
10419 H 21.86756053991168 92.78598256951685 52.94726056733498 H 0.0 **** 0.06
10420 H 20.90373190106496 93.1204093921109 54.40676381512952 H 0.0 **** 0.06
10421 C 97.56829418913202 89.30325412159675 43.16009776401967 C 0.0 **** -0.24
10422 H 98.35394244093527 88.87812202276999 42.53526249804543 H 0.0 **** 0.06
10423 H 97.96845895483784 89.51768584252235 44.15139126545404 H 0.0 **** 0.06
10424 H 96.74753634715833 88.59091905813156 43.24548456768218 H 0.0 **** 0.06
10425 H 97.20438670499945 90.22572082015435 42.7076531807553 H 0.0 **** 0.06
10426 C 29.90940420640343 71.30344512782224 71.30509180366971 C 0.0 **** -0.24
10427 H 29.59089737725413 71.02766262581338 70.29990477184612 H 0.0 **** 0.06
10428 H 29.936619636371162 70.41467123855656 71.93442063828712 H 0.0 **** 0.06
10429 H 29.206719253044852 72.02446561961727 71.72269193718634 H 0.0 **** 0.06
10430 H 30.903515823589494 71.74859755744214 71.26151441506357 H 0.0 **** 0.06
10431 C 76.48736723916903 46.22917100932099 117.18324890876849 C 0.0 **** -0.24
10432 H 76.53592183957551 46.06057269168721 118.25874302325262 H 0.0 **** 0.06
10433 H 77.23138262519439 45.60795154015361 116.68372303538261 H 0.0 **** 0.06
10434 H 76.68776419772252 47.2789126252018 116.97074686272171 H 0.0 **** 0.06
10435 H 75.49305643502038 45.96884635706507 116.8187660726764 H 0.0 **** 0.06
10436 C 83.52207079104974 14.349363499066072 69.67387953322441 C 0.0 **** -0.24
10437 H 83.94484263092136 14.951772892324954 68.86945023188349 H 0.0 **** 0.06
10438 H 84.31846797792736 13.789406125172718 70.16453405032456 H 0.0 **** 0.06
10439 H 82.78987358036017 13.655834118069976 69.26063892826497 H 0.0 **** 0.06
10440 H 83.03583294605434 15.001926303753379 70.39939324396585 H 0.0 **** 0.06
10441 C 67.85185718223028 24.830246379908196 46.772731021106296 C 0.0 **** -0.24
10442 H 67.16454217112874 24.41164972891557 46.038205709840724 H 0.0 **** 0.06
10443 H 67.970337240412 24.130007808878084 47.5998591929708 H 0.0 **** 0.06
10444 H 67.4523827350663 25.771891872340333 47.14888322726463 H 0.0 **** 0.06
10445 H 68.81993722272881 25.00793815890183 46.30480986030048 H 0.0 **** 0.06
10446 C 16.16059118982932 86.06034246013161 55.6520963079621 C 0.0 **** -0.24
10447 H 15.376020721886078 86.53477686301238 56.24121745339704 H 0.0 **** 0.06
10448 H 17.080447168464815 86.63815914373276 55.73970568733313 H 0.0 **** 0.06
10449 H 15.855341310598448 86.01748184251434 54.60719967526657 H 0.0 **** 0.06
10450 H 16.330309440426873 85.04883545222188 56.02299378750885 H 0.0 **** 0.06
10451 C 33.866059834280776 53.3532005155092 112.35684005160891 C 0.0 **** -0.24
10452 H 34.52070361273772 52.53791147704183 112.6638055871402 H 0.0 **** 0.06
10453 H 33.63808950484511 53.2557840895883 111.29544939181496 H 0.0 **** 0.06
10454 H 34.363858661541826 54.30539713461657 112.53685511824877 H 0.0 **** 0.06
10455 H 32.940803973473976 53.31123026809968 112.93236391495674 H 0.0 **** 0.06
10456 C 100.16288523754386 78.2875837382108 51.795109608291725 C 0.0 **** -0.24
10457 H 99.0990298691058 78.38590731774934 51.58297120603817 H 0.0 **** 0.06
10458 H 100.42051403654955 77.23153387204056 51.88079333640553 H 0.0 **** 0.06
10459 H 100.39502209337599 78.79573822668681 52.73193998902554 H 0.0 **** 0.06
10460 H 100.73841807590054 78.73774013059966 50.98598924019972 H 0.0 **** 0.06
10461 C 31.77715659312946 23.757604823103833 115.17926722570087 C 0.0 **** -0.24
10462 H 32.50942084428124 23.87956139922295 114.38127335596425 H 0.0 **** 0.06
10463 H 30.92400186171494 23.189452163001704 114.80481256711317 H 0.0 **** 0.06
10464 H 31.4417005938148 24.7371770559229 115.5175392904685 H 0.0 **** 0.06
10465 H 32.233359917616326 23.220730903977056 116.01126513351926 H 0.0 **** 0.06
10466 C 93.88519536618517 14.07670193209728 63.13471614904125 C 0.0 **** -0.24
10467 H 93.66701558896477 15.087594416137108 63.47893633056728 H 0.0 **** 0.06
10468 H 92.95234200209936 13.562741393441144 62.90221936635069 H 0.0 **** 0.06
10469 H 94.41544393586068 13.532390362730268 63.91611933227287 H 0.0 **** 0.06
10470 H 94.50648668445868 14.124694792008768 62.23949972431777 H 0.0 **** 0.06
10471 C 78.7461923654783 74.32451089384426 78.96762470756724 C 0.0 **** -0.24
10472 H 79.64329636327867 73.7452688623282 78.75003419876884 H 0.0 **** 0.06
10473 H 78.66822411484293 75.15187995488247 78.26271625710976 H 0.0 **** 0.06
10474 H 78.80594510070631 74.71666546080542 79.98353811604832 H 0.0 **** 0.06
10475 H 77.86938781701846 73.68453225100893 78.87634707033067 H 0.0 **** 0.06
10476 C 45.50173841161552 49.71020728383881 28.66695854628341 C 0.0 **** -0.24
10477 H 45.303122387933286 49.68926741797725 27.59533138337673 H 0.0 **** 0.06
10478 H 46.57560765659292 49.79635767510956 28.835498090242993 H 0.0 **** 0.06
10479 H 45.134902407748314 48.789794539586865 29.121626904706318 H 0.0 **** 0.06
10480 H 44.99251433598704 50.56470126349524 29.113416258977566 H 0.0 **** 0.06
10481 C 12.231290303591152 48.58355646564837 38.47101222307278 C 0.0 **** -0.24
10482 H 12.13673601042936 49.59948880785515 38.088541980535226 H 0.0 **** 0.06
10483 H 11.238570431938967 48.159519954561745 38.625928113014254 H 0.0 **** 0.06
10484 H 12.771161045354233 48.6016238330875 39.41784469608806 H 0.0 **** 0.06
10485 H 12.778899022585563 47.9744417699136 37.75222190906038 H 0.0 **** 0.06
10486 C 85.33868816825856 13.057259542834245 66.36695959587033 C 0.0 **** -0.24
10487 H 84.27221296885705 12.836193447875175 66.37469874113154 H 0.0 **** 0.06
10488 H 85.57100538885459 13.696657534731088 65.51487595571075 H 0.0 **** 0.06
10489 H 85.90154694776982 12.127205006329262 66.28791454438402 H 0.0 **** 0.06
10490 H 85.61105419640921 13.569880129125863 67.29011316558751 H 0.0 **** 0.06
10491 C 14.79046754894232 9.403908844115222 3.113954604791502 C 0.0 **** -0.24
10492 H 14.861966315623793 9.531288125829121 4.193670288132637 H 0.0 **** 0.06
10493 H 15.709112885540204 8.950617112154646 2.7399679905665266 H 0.0 **** 0.06
10494 H 14.64722170390911 10.37700299090693 2.6413669041237426 H 0.0 **** 0.06
10495 H 13.943550910272315 8.758566893845 2.879196032844902 H 0.0 **** 0.06
10496 C 21.507249130713507 35.36108546647523 26.265999627612445 C 0.0 **** -0.24
10497 H 22.512294277561548 35.09172196097359 26.59214557505419 H 0.0 **** 0.06
10498 H 20.776431713920015 34.93306584426642 26.952794886095617 H 0.0 **** 0.06
10499 H 21.33569515677292 34.971301260765784 25.263064422420243 H 0.0 **** 0.06
10500 H 21.406756883584332 36.44640576915873 26.25690468287752 H 0.0 **** 0.06
10501 C 94.77765353158117 2.735204878089176 19.665705758782877 C 0.0 **** -0.24
10502 H 94.37322143039069 3.3989801219751357 20.42940899273188 H 0.0 **** 0.06
10503 H 95.5869475053278 3.240928137199468 19.136632071500316 H 0.0 **** 0.06
10504 H 93.99052677369505 2.4710818137161077 18.959970679961174 H 0.0 **** 0.06
10505 H 95.16131737051754 1.8298440570215568 20.13701825047653 H 0.0 **** 0.06
10506 C 56.57971976598201 115.1037191154789 67.7982806511892 C 0.0 **** -0.24
10507 H 55.52726477690242 114.82412521033653 67.79052281000509 H 0.0 **** 0.06
10508 H 56.67005645471925 116.17328451607646 67.98788208682117 H 0.0 **** 0.06
10509 H 57.025605384033945 114.86759265950977 66.83179375802376 H 0.0 **** 0.06
10510 H 57.09769894739902 114.54972300888895 68.58153570917779 H 0.0 **** 0.06
10511 C 43.7902719386701 35.113467411656416 6.312498778018478 C 0.0 **** -0.24
10512 H 44.011562958564966 34.61230657146808 5.370475618517567 H 0.0 **** 0.06
10513 H 44.668850555273764 35.66492138079815 6.645199275414573 H 0.0 **** 0.06
10514 H 43.52005724586839 34.3715116613281 7.063447654237564 H 0.0 **** 0.06
10515 H 42.9592000909712 35.80480740938259 6.168445886031909 H 0.0 **** 0.06
10516 C 2.2984955176807773 63.80135343160824 114.63410213351133 C 0.0 **** -0.24
10517 H 1.6926181057718281 62.95583519957416 114.96267808893069 H 0.0 **** 0.06
10518 H 2.4510990965823964 63.74146623992859 113.55652835992674 H 0.0 **** 0.06
10519 H 3.2625217881006847 63.77483655902632 115.1405028447061 H 0.0 **** 0.06
10520 H 1.7847116466623163 64.73190919531584 114.87809342850281 H 0.0 **** 0.06
10521 C 61.13050799795542 9.257590556664468 61.172417448914246 C 0.0 **** -0.24
10522 H 61.961927777461824 9.037064216408453 61.84251960607946 H 0.0 **** 0.06
10523 H 60.55803708208964 10.097273367839563 61.568665472104044 H 0.0 **** 0.06
10524 H 60.485335290432204 8.382482237776912 61.095293058987636 H 0.0 **** 0.06
10525 H 61.51624751618306 9.51316665704988 60.18629404917647 H 0.0 **** 0.06
10526 C 74.40011102112732 66.30766219344844 61.22355464809431 C 0.0 **** -0.24
10527 H 74.96315243137872 65.52031395792338 60.72256993294724 H 0.0 **** 0.06
10528 H 74.63095510042663 67.26811679326386 60.76240222126444 H 0.0 **** 0.06
10529 H 74.67317217137489 66.33481360771094 62.277844884933984 H 0.0 **** 0.06
10530 H 73.33296830999842 66.10663377451348 61.12908465427324 H 0.0 **** 0.06
10531 C 28.61650921169172 78.0109539795412 114.33310320154713 C 0.0 **** -0.24
10532 H 28.67354774548302 78.01017432919099 113.24497797055722 H 0.0 **** 0.06
10533 H 27.983200974580463 78.83494987332563 114.66315784052537 H 0.0 **** 0.06
10534 H 29.616793963490444 78.13296899471393 114.74885112083308 H 0.0 **** 0.06
10535 H 28.192705209954852 77.06736357533777 114.674912813092 H 0.0 **** 0.06
10536 C 87.67845715755158 95.04220750860534 9.14246521708651 C 0.0 **** -0.24
10537 H 86.84982724583469 94.36348254280608 9.343988039515011 H 0.0 **** 0.06
10538 H 88.55239037186055 94.46711252740243 8.837019558285022 H 0.0 **** 0.06
10539 H 87.91232809687762 95.60732482283319 10.045020703881505 H 0.0 **** 0.06
10540 H 87.39835056965606 95.73056116249896 8.345250001105398 H 0.0 **** 0.06
10541 C 108.3849563938956 13.026749600081217 3.9085530246713915 C 0.0 **** -0.24
10542 H 108.72135583481952 13.332944497174225 4.8984098781493515 H 0.0 **** 0.06
10543 H 109.11571141197172 12.345992203412589 3.4709126585882473 H 0.0 **** 0.06
10544 H 108.2806107518465 13.905321626813862 3.271718851874766 H 0.0 **** 0.06
10545 H 107.42181540015491 12.522340285427092 3.991855436088514 H 0.0 **** 0.06
10546 C 10.984345465110845 46.82886599657968 5.535120768073057 C 0.0 **** -0.24
10547 H 10.974160922511022 47.51286909576618 6.383165901614888 H 0.0 **** 0.06
10548 H 10.14995247896336 46.13209197984389 5.619725307314297 H 0.0 **** 0.06
10549 H 11.922291479391266 46.27395568520865 5.526672774208464 H 0.0 **** 0.06
10550 H 10.889596459787064 47.396790414450095 4.609176873027195 H 0.0 **** 0.06
10551 C 42.15870422576384 33.746039270305175 68.48671659189466 C 0.0 **** -0.24
10552 H 41.61662662613307 34.56805113146652 68.95420450079257 H 0.0 **** 0.06
10553 H 42.750965028133805 34.128332377680806 67.65506659448317 H 0.0 **** 0.06
10554 H 41.44906203550235 33.0055327682432 68.11881360995721 H 0.0 **** 0.06
10555 H 42.81859889844171 33.28329072105174 69.2207073167965 H 0.0 **** 0.06
10556 C 30.620843539928103 22.794871172009834 7.671823729374054 C 0.0 **** -0.24
10557 H 30.813792181220037 21.798929551992103 8.071680871330699 H 0.0 **** 0.06
10558 H 30.744756337365743 23.533790887409225 8.463473803551864 H 0.0 **** 0.06
10559 H 29.60244706692805 22.840203409931064 7.287214677056397 H 0.0 **** 0.06
10560 H 31.323982710698488 23.00482034023537 6.865556249717187 H 0.0 **** 0.06
10561 C 89.79374111528651 33.749164789588804 51.9792062663804 C 0.0 **** -0.24
10562 H 90.56858309031935 34.27191576359462 52.53944359796367 H 0.0 **** 0.06
10563 H 90.05621060519996 33.73728759655907 50.920439351248945 H 0.0 **** 0.06
10564 H 88.8409601828123 34.26109520431085 52.11200415459399 H 0.0 **** 0.06
10565 H 89.7093068550817 32.72542981747068 52.34387753537459 H 0.0 **** 0.06
10566 C 44.54997924213495 80.08000946360573 32.61943193024747 C 0.0 **** -0.24
10567 H 44.104377159521135 79.1681225192647 32.22387730221425 H 0.0 **** 0.06
10568 H 45.20595540788227 79.8321187640615 33.453926413279575 H 0.0 **** 0.06
10569 H 43.76159775098665 80.7502916866703 32.963465356427236 H 0.0 **** 0.06
10570 H 45.128408738361344 80.57230079384607 31.83653076373197 H 0.0 **** 0.06
10571 C 45.94235788814937 111.77437488663732 91.63210882964842 C 0.0 **** -0.24
10572 H 45.31299138264385 112.65719791203757 91.52449927772724 H 0.0 **** 0.06
10573 H 45.31588484511401 110.88294065097575 91.65899905236859 H 0.0 **** 0.06
10574 H 46.51313044078998 111.84536682673208 92.55847077698604 H 0.0 **** 0.06
10575 H 46.627424884049695 111.71199415680401 90.7864662115116 H 0.0 **** 0.06
10576 C 1.4643182839224664 118.66637273266309 100.59046373492714 C 0.0 **** -0.24
10577 H 0.7230132794980619 117.91927164024489 100.87530484819257 H 0.0 **** 0.06
10578 H 1.2304238521861066 119.61442717589847 101.0746710551561 H 0.0 **** 0.06
10579 H 1.4493253894998617 118.79685677566187 99.50821250659413 H 0.0 **** 0.06
10580 H 2.4542919114067985 118.33280730122601 100.90247322503217 H 0.0 **** 0.06
10581 C 76.23377578727306 33.63928319263911 47.527616930826014 C 0.0 **** -0.24
10582 H 75.34503581024168 33.65115552908719 48.15824903142561 H 0.0 **** 0.06
10583 H 76.74269423553321 34.60103004893628 47.59809823805364 H 0.0 **** 0.06
10584 H 75.94190104739283 33.457681558088126 46.493272429207536 H 0.0 **** 0.06
10585 H 76.90462903212281 32.84759916205758 47.86042597158817 H 0.0 **** 0.06
10586 C 112.37679100476765 103.8001297108834 0.2462923528975729 C 0.0 **** -0.24
10587 H 111.63887362535864 104.60309358911996 0.2450316893425839 H 0.0 **** 0.06
10588 H 112.54946902862045 103.46810221003227 1.2703112206344436 H 0.0 **** 0.06
10589 H 113.3109841568815 104.16551145298664 -0.1803619746452103 H 0.0 **** 0.06
10590 H 112.00662736812177 102.96670824542471 -0.3494290737794845 H 0.0 **** 0.06
10591 C 63.16754234004139 111.96849382700418 12.725912747943283 C 0.0 **** -0.24
10592 H 62.69070184116612 112.50136202638839 11.902215419130044 H 0.0 **** 0.06
10593 H 64.1644392506497 111.64876957062518 12.423486752408266 H 0.0 **** 0.06
10594 H 62.56852076609596 111.09621958182504 12.98887549715262 H 0.0 **** 0.06
10595 H 63.244739833749065 112.63021892198958 13.58945145521082 H 0.0 **** 0.06
10596 C 104.17642911849768 65.38344367364587 117.0882522295458 C 0.0 **** -0.24
10597 H 104.87743574028465 65.53577103457636 117.90880183170266 H 0.0 **** 0.06
10598 H 104.26082616847535 64.35897485816523 116.7234790837132 H 0.0 **** 0.06
10599 H 104.40857110769602 66.07771132191226 116.27972443955373 H 0.0 **** 0.06
10600 H 103.16052661639506 65.56163713322081 117.43952094946555 H 0.0 **** 0.06
10601 C 28.40093054366247 41.546560005212825 50.50992323016641 C 0.0 **** -0.24
10602 H 27.448387121042515 41.33983542126461 50.02081729718299 H 0.0 **** 0.06
10603 H 29.129992522307646 41.86633000180848 49.7634645785551 H 0.0 **** 0.06
10604 H 28.758322286703503 40.643000710102314 51.00383649301784 H 0.0 **** 0.06
10605 H 28.266281600715388 42.33667344774594 51.24821378476821 H 0.0 **** 0.06
10606 C 89.10086304266994 115.29046456015224 16.832653351473994 C 0.0 **** -0.24
10607 H 88.23462595572221 115.1663778549497 17.482856698867693 H 0.0 **** 0.06
10608 H 89.48143761286886 114.31051895358605 16.544167322914234 H 0.0 **** 0.06
10609 H 89.87789608235872 115.84022097422306 17.364276470666084 H 0.0 **** 0.06
10610 H 88.80943145095353 115.84473110330843 15.94031103250694 H 0.0 **** 0.06
10611 C 95.18655313288457 9.0275114966297 40.67798305960579 C 0.0 **** -0.24
10612 H 95.09114414871169 7.985472683709702 40.98405958313427 H 0.0 **** 0.06
10613 H 94.31533462451705 9.58645658586417 41.01963386214456 H 0.0 **** 0.06
10614 H 95.25261874649107 9.082723786160699 39.59161549840644 H 0.0 **** 0.06
10615 H 96.08740035414871 9.453833750788192 41.118490883783835 H 0.0 **** 0.06
10616 C 1.5784855663879824 16.8083210779666 117.8068564436494 C 0.0 **** -0.24
10617 H 0.7037013013776203 17.067624474876364 118.40272033272231 H 0.0 **** 0.06
10618 H 1.4962432594624602 15.77294277348858 117.47352981285633 H 0.0 **** 0.06
10619 H 2.4776014590660793 16.924459538426238 118.41152329789603 H 0.0 **** 0.06
10620 H 1.63609373068077 17.465829240916737 116.93976311060092 H 0.0 **** 0.06
10621 C 98.10308937172195 111.46024622770321 76.41734953963982 C 0.0 **** -0.24
10622 H 98.58198334739944 111.11647188713705 77.33483654354 H 0.0 **** 0.06
10623 H 97.50659400524847 112.34781738972946 76.63106277570739 H 0.0 **** 0.06
10624 H 97.45877489262094 110.67325669305713 76.02679502283422 H 0.0 **** 0.06
10625 H 98.86751560602835 111.70446719984832 75.67928094159328 H 0.0 **** 0.06
10626 C 115.04264657698593 112.15762079707795 90.04487325526443 C 0.0 **** -0.24
10627 H 115.0695797456359 112.59520112304108 91.04359329722936 H 0.0 **** 0.06
10628 H 114.5937925259791 112.86756944435783 89.34957362395215 H 0.0 **** 0.06
10629 H 114.44918093851311 111.24363783864749 90.06444997405276 H 0.0 **** 0.06
10630 H 116.05797498340587 111.92520941470852 89.72271835444553 H 0.0 **** 0.06
10631 C 109.28418788449937 83.22038159093321 2.21244581710269 C 0.0 **** -0.24
10632 H 109.05541788227112 83.76261760204414 3.1295717227705637 H 0.0 **** 0.06
10633 H 108.35578164025182 82.90801688525303 1.7338972512537225 H 0.0 **** 0.06
10634 H 109.8843998852415 82.34181509541153 2.4493889462933254 H 0.0 **** 0.06
10635 H 109.84071140047917 83.86969324089986 1.5357312578022402 H 0.0 **** 0.06
10636 C 62.759011444929875 118.37586719430655 117.23592822878624 C 0.0 **** -0.24
10637 H 62.67930299950502 117.81025445895766 116.30728976411217 H 0.0 **** 0.06
10638 H 63.77063824827699 118.76870030088612 117.3346647087028 H 0.0 **** 0.06
10639 H 62.539087247748775 117.72102979022016 118.07914047715133 H 0.0 **** 0.06
10640 H 62.04796037856 119.2009312166249 117.22072235067571 H 0.0 **** 0.06
10641 C 71.1612899132611 39.80680863281361 50.71178321404016 C 0.0 **** -0.24
10642 H 71.60476669213142 40.16083828174928 51.64232172063834 H 0.0 **** 0.06
10643 H 71.47743502187802 38.78032341105225 50.52575112984344 H 0.0 **** 0.06
10644 H 71.48750108277937 40.443315478685804 49.889760812374774 H 0.0 **** 0.06
10645 H 70.07464244961065 39.84327596648481 50.79033258868125 H 0.0 **** 0.06
10646 C 104.89480741175493 105.73977163525683 46.79516891914176 C 0.0 **** -0.24
10647 H 105.12098610916729 104.81961378786633 46.25658160823667 H 0.0 **** 0.06
10648 H 105.74111297532414 106.42164702719023 46.71972794552772 H 0.0 **** 0.06
10649 H 104.70513601370811 105.50915033550012 47.84335646524261 H 0.0 **** 0.06
10650 H 104.0113532796666 106.20656942378034 46.360617266221084 H 0.0 **** 0.06
10651 C 107.21806806423712 116.48359089511968 77.12564383889139 C 0.0 **** -0.24
10652 H 107.74865767837059 116.7768806630822 76.220024537814 H 0.0 **** 0.06
10653 H 106.77943629741185 117.36618312961994 77.59123238269981 H 0.0 **** 0.06
10654 H 107.91561983796049 116.01396824293471 77.81863850957814 H 0.0 **** 0.06
10655 H 106.42797075564675 115.77656777121916 76.86983883409658 H 0.0 **** 0.06
10656 C 7.161248987892137 56.812912823437955 49.114009878819985 C 0.0 **** -0.24
10657 H 6.327230782188909 57.01109725688707 48.4401188013903 H 0.0 **** 0.06
10658 H 7.936518168311931 56.26327414390778 48.57994096471637 H 0.0 **** 0.06
10659 H 6.812127753573591 56.219193628291066 49.959365723240296 H 0.0 **** 0.06
10660 H 7.5683559827490825 57.75626715377865 49.476284637494615 H 0.0 **** 0.06
10661 C 76.69178305647284 33.7550476378878 116.57627124910462 C 0.0 **** -0.24
10662 H 76.85001551801781 34.33685934750895 115.6687872925528 H 0.0 **** 0.06
10663 H 75.70820069028713 33.984221891238974 116.9877813092711 H 0.0 **** 0.06
10664 H 77.4596989682133 34.00792432021956 117.3078026188361 H 0.0 **** 0.06
10665 H 76.74944432492154 32.69180108909694 116.34146798360116 H 0.0 **** 0.06
10666 C 62.20210395348934 94.35613055267623 16.029109767168393 C 0.0 **** -0.24
10667 H 62.831867653592866 93.50433645503767 16.284765848876958 H 0.0 **** 0.06
10668 H 62.39318719000545 94.65194643902754 14.9965576623363 H 0.0 **** 0.06
10669 H 62.42970722854059 95.18940054477997 16.694014607543863 H 0.0 **** 0.06
10670 H 61.15357045530595 94.07846243906039 16.138898285671957 H 0.0 **** 0.06
10671 C 107.00132355377497 49.046528157967145 45.392214813673625 C 0.0 **** -0.24
10672 H 108.09053309078314 49.071300278976196 45.34540072409987 H 0.0 **** 0.06
10673 H 106.60345337487078 50.02488848389254 45.12450245422424 H 0.0 **** 0.06
10674 H 106.68690386418538 48.7899807012825 46.40364212429536 H 0.0 **** 0.06
10675 H 106.62568781219835 48.297232343333235 44.69525487753171 H 0.0 **** 0.06
10676 C 110.15565349498571 79.94877447730286 72.10507128336525 C 0.0 **** -0.24
10677 H 110.74035217982355 79.29046497397883 71.46251185699623 H 0.0 **** 0.06
10678 H 110.77057847727542 80.27578646342351 72.94420122627224 H 0.0 **** 0.06
10679 H 109.28589994832441 79.4113954023783 72.48032712647728 H 0.0 **** 0.06
10680 H 109.82852335954325 80.81718608232649 71.53443773171665 H 0.0 **** 0.06
10681 C 101.33832341260103 12.724705242877747 83.08761956775624 C 0.0 **** -0.24
10682 H 100.74617795860445 13.591534682497809 83.38307535911258 H 0.0 **** 0.06
10683 H 101.68264563769264 12.853079659122926 82.06110029203236 H 0.0 **** 0.06
10684 H 100.72565582528335 11.825347716478944 83.15565690494742 H 0.0 **** 0.06
10685 H 102.19877984140754 12.629841478331343 83.7504628427329 H 0.0 **** 0.06
10686 C 68.5461724360544 36.31284815446867 15.060001020598747 C 0.0 **** -0.24
10687 H 67.5744718214562 36.41721043573513 15.543668316611445 H 0.0 **** 0.06
10688 H 68.4358099527135 35.73421951266186 14.143957096583051 H 0.0 **** 0.06
10689 H 69.23370317345626 35.80052829377181 15.733455139521652 H 0.0 **** 0.06
10690 H 68.9403803649698 37.30118885437999 14.822212506499113 H 0.0 **** 0.06
10691 C 14.029367088007465 91.54105101872739 118.83521998595921 C 0.0 **** -0.24
10692 H 14.624844361692869 90.65855450452875 119.07224609080305 H 0.0 **** 0.06
10693 H 13.976237191689801 92.18857319720092 119.71021872307057 H 0.0 **** 0.06
10694 H 13.024217777773913 91.23404407184776 118.54751679870657 H 0.0 **** 0.06
10695 H 14.493935052620078 92.08149827643987 118.01017152258214 H 0.0 **** 0.06
10696 C 9.351937389222996 66.17309055270874 74.46529708565168 C 0.0 **** -0.24
10697 H 8.26871610445312 66.17149884796427 74.59097821483357 H 0.0 **** 0.06
10698 H 9.819617406712268 65.73885129632288 75.34863292638869 H 0.0 **** 0.06
10699 H 9.700888843553173 67.19790231103153 74.33638881492465 H 0.0 **** 0.06
10700 H 9.616245588391848 65.58570736491498 73.5866858738039 H 0.0 **** 0.06
10701 C 115.61265799083522 51.707984136233705 118.14415828947133 C 0.0 **** -0.24
10702 H 115.17458403332644 51.048727538979136 118.89249673186998 H 0.0 **** 0.06
10703 H 116.6066700461001 51.34666520578705 117.87825547875205 H 0.0 **** 0.06
10704 H 115.68934232743368 52.71701308370305 118.5493442595683 H 0.0 **** 0.06
10705 H 114.98038433852963 51.720308108565035 117.25601316962945 H 0.0 **** 0.06
10706 C 50.43237297406489 58.37654756053072 37.92426630099078 C 0.0 **** -0.24
10707 H 51.163360398697534 57.831126428217225 37.32657173093446 H 0.0 **** 0.06
10708 H 50.571502056986105 59.448005951122504 37.7798828116114 H 0.0 **** 0.06
10709 H 50.569755980315676 58.130041244047455 38.977620552276335 H 0.0 **** 0.06
10710 H 49.42671829779215 58.094451732824005 37.613126198544876 H 0.0 **** 0.06
10711 C 84.08827092825732 101.63069816937607 39.87554803265955 C 0.0 **** -0.24
10712 H 83.67659258093491 101.69866850118518 40.882501625808814 H 0.0 **** 0.06
10713 H 85.12541462003054 101.29694443059839 39.92962283070739 H 0.0 **** 0.06
10714 H 84.0464641379526 102.61027196547147 39.4006850380158 H 0.0 **** 0.06
10715 H 83.50615645828964 100.91851369339449 39.292852195517476 H 0.0 **** 0.06
10716 C 57.24946349471509 76.10032435727797 24.084484810097734 C 0.0 **** -0.24
10717 H 56.57047603282436 75.91559398096021 23.25116652172582 H 0.0 **** 0.06
10718 H 57.668628983910025 77.10222812559181 23.995689204724982 H 0.0 **** 0.06
10719 H 58.05406277849977 75.36514347018999 24.065813123703293 H 0.0 **** 0.06
10720 H 56.70172990196477 76.01659964585349 25.023766834737174 H 0.0 **** 0.06
10721 C 52.07074442367684 14.911185744937654 8.616922459220707 C 0.0 **** -0.24
10722 H 51.55272491244304 13.952779870051785 8.578653036482685 H 0.0 **** 0.06
10723 H 52.12777991019718 15.333856085417892 7.613875451268012 H 0.0 **** 0.06
10724 H 53.07733596736543 14.764427708642359 9.008067051465016 H 0.0 **** 0.06
10725 H 51.52385790762307 15.593429894363112 9.26891150659624 H 0.0 **** 0.06
10726 C 76.92511549428536 1.696659970664271 50.58291361896452 C 0.0 **** -0.24
10727 H 77.22332634955788 2.037754168276251 49.59202132049522 H 0.0 **** 0.06
10728 H 76.64685436448866 0.6439470645721173 50.536980741877926 H 0.0 **** 0.06
10729 H 76.07325878949021 2.2836780933313463 50.927705596308826 H 0.0 **** 0.06
10730 H 77.75689845730554 1.823257006322109 51.27636073348379 H 0.0 **** 0.06
10731 C 10.478963904945488 74.31195267635022 114.67628540906466 C 0.0 **** -0.24
10732 H 11.081800878045414 73.40750235758878 114.60004418409355 H 0.0 **** 0.06
10733 H 9.624317849603386 74.12596992205124 115.32678837446258 H 0.0 **** 0.06
10734 H 10.127183515127967 74.59795839353686 113.68529861445859 H 0.0 **** 0.06
10735 H 11.084696792565666 75.11754448701842 115.09278648530534 H 0.0 **** 0.06
10736 C 56.34827223675516 95.44116924459314 114.088431961364 C 0.0 **** -0.24
10737 H 55.30376988406608 95.62711948864097 114.33634292915582 H 0.0 **** 0.06
10738 H 56.66578231697995 96.13357057683913 113.30882801823935 H 0.0 **** 0.06
10739 H 56.459692299905406 94.41697509708808 113.73185446301505 H 0.0 **** 0.06
10740 H 56.96419481076439 95.585926043997 114.97586669508678 H 0.0 **** 0.06
10741 C 115.2208167547373 16.025869080602572 90.58536499417588 C 0.0 **** -0.24
10742 H 114.99576415380983 16.33995092684129 91.60488033262575 H 0.0 **** 0.06
10743 H 116.29941904684271 16.04939003270469 90.42837627625559 H 0.0 **** 0.06
10744 H 114.73538086001088 16.701306495143886 89.88081700496457 H 0.0 **** 0.06
10745 H 114.85260074686028 15.01122474251784 90.42894091358076 H 0.0 **** 0.06
10746 C 88.2264582366522 85.97977436872054 98.43695827206923 C 0.0 **** -0.24
10747 H 87.78428500711703 85.79643449755736 99.41605422031287 H 0.0 **** 0.06
10748 H 87.9640936939131 86.98367624466022 98.10188740243342 H 0.0 **** 0.06
10749 H 87.84495958509223 85.24789692014832 97.72408744042471 H 0.0 **** 0.06
10750 H 89.31009048940649 85.88989385468818 98.50491514111008 H 0.0 **** 0.06
10751 C 50.70706272336304 92.13079755119 98.0911973325951 C 0.0 **** -0.24
10752 H 49.78557634044546 91.90802072572211 98.62883836998077 H 0.0 **** 0.06
10753 H 51.46723784397528 91.39440251968361 98.35164445856347 H 0.0 **** 0.06
10754 H 51.05494063974578 93.12678781095815 98.36560567693161 H 0.0 **** 0.06
10755 H 50.51888887077854 92.09523996661608 97.01779113090899 H 0.0 **** 0.06
10756 C 45.63365751028745 48.91416554399228 32.347084305866304 C 0.0 **** -0.24
10757 H 46.25474014497664 48.38183670656747 33.06742653951278 H 0.0 **** 0.06
10758 H 46.25121207506933 49.60986468141169 31.779158582116622 H 0.0 **** 0.06
10759 H 44.85660094964652 49.46522859611429 32.87523872050684 H 0.0 **** 0.06
10760 H 45.17268744199661 48.19834304399495 31.66567812839935 H 0.0 **** 0.06
10761 C 25.37993961429359 2.6360411236167636 82.21195785002467 C 0.0 **** -0.24
10762 H 25.02496514240937 1.9811173095991368 81.4160837986085 H 0.0 **** 0.06
10763 H 25.79877483386346 3.5430328186071094 81.77592264727485 H 0.0 **** 0.06
10764 H 26.14756537891904 2.1225243752054244 82.79037099747671 H 0.0 **** 0.06
10765 H 24.547631335850554 2.8973462076951613 82.86600539606269 H 0.0 **** 0.06
10766 C 54.063209263217445 82.38312491198116 1.7916893610191664 C 0.0 **** -0.24
10767 H 54.58613325980903 81.57873406757065 2.309334464177539 H 0.0 **** 0.06
10768 H 54.634213177027505 82.67870630599654 0.9105203404548945 H 0.0 **** 0.06
10769 H 53.95899516671898 83.23732333609414 2.460876223322373 H 0.0 **** 0.06
10770 H 53.07637455705037 82.03690976368156 1.4870406940861756 H 0.0 **** 0.06
10771 C 29.10132007862137 36.574492487023036 99.97391508596817 C 0.0 **** -0.24
10772 H 28.977177423028195 35.6358017276674 99.43395043042551 H 0.0 **** 0.06
10773 H 28.250309985662966 37.225530361208484 99.77211786701858 H 0.0 **** 0.06
10774 H 30.01893893991422 37.06339843268759 99.64459722589604 H 0.0 **** 0.06
10775 H 29.16028723708024 36.373432213351606 101.04328928258238 H 0.0 **** 0.06
10776 C 30.565952715973147 24.110707026534385 107.88359424231837 C 0.0 **** -0.24
10777 H 29.75894135004725 24.3175445894189 107.17984605026854 H 0.0 **** 0.06
10778 H 30.424256770044877 24.70874698871279 108.78459486132675 H 0.0 **** 0.06
10779 H 31.52198589741834 24.365807795528838 107.42462603206806 H 0.0 **** 0.06
10780 H 30.55877264933313 23.053147972943066 108.1435418219757 H 0.0 **** 0.06
10781 C 89.2165124211968 23.648296232519556 39.07147482031067 C 0.0 **** -0.24
10782 H 89.07200614437804 24.469976048954294 38.36925345488848 H 0.0 **** 0.06
10783 H 89.47131437931327 24.049479733544842 40.05280370265055 H 0.0 **** 0.06
10784 H 90.02481473671216 23.006922851444074 38.71903451293852 H 0.0 **** 0.06
10785 H 88.29685829790816 23.067470612755784 39.144141729835724 H 0.0 **** 0.06
10786 C 80.03621242488964 54.34506474692665 112.09558416903174 C 0.0 **** -0.24
10787 H 80.85553480695665 55.061305107709536 112.14809214195495 H 0.0 **** 0.06
10788 H 80.17507730644789 53.69761526924469 111.22990970716532 H 0.0 **** 0.06
10789 H 79.09073859465818 54.88030433936425 112.00191214997278 H 0.0 **** 0.06
10790 H 80.02284766961094 53.741242735176996 113.00315232161125 H 0.0 **** 0.06
10791 C 32.72645693722242 38.58595615458995 63.140298990719465 C 0.0 **** -0.24
10792 H 32.95831313923122 37.87834935434586 62.34505197524155 H 0.0 **** 0.06
10793 H 32.02435584568454 39.33263755845027 62.76855641723723 H 0.0 **** 0.06
10794 H 33.64168855096008 39.07835255270825 63.466883391722895 H 0.0 **** 0.06
10795 H 32.27948993490523 38.05425649319167 63.98054155148203 H 0.0 **** 0.06
10796 C 82.21904393629686 70.8655987971201 14.588807902046796 C 0.0 **** -0.24
10797 H 83.07695396910901 70.69680483941804 15.239670826095647 H 0.0 **** 0.06
10798 H 81.2994585906342 70.73632997860238 15.160377660430498 H 0.0 **** 0.06
10799 H 82.24104488653111 70.15158458474724 13.766139577461786 H 0.0 **** 0.06
10800 H 82.2605680758657 71.8798898290317 14.190679692587736 H 0.0 **** 0.06
10801 C 37.560790312274605 15.489057472209737 67.8493679632416 C 0.0 **** -0.24
10802 H 38.15454796768614 16.237705483925566 68.37370617626618 H 0.0 **** 0.06
10803 H 37.87649672823346 15.43963447979084 66.80703144184173 H 0.0 **** 0.06
10804 H 36.50609280747153 15.761895425543003 67.89728720361936 H 0.0 **** 0.06
10805 H 37.70559838057545 14.515665464080115 68.31921714808877 H 0.0 **** 0.06
10806 C 54.30561851848668 93.60535317086612 87.1711601192815 C 0.0 **** -0.24
10807 H 53.471438437123055 93.82296278137724 86.50394408591006 H 0.0 **** 0.06
10808 H 53.92877496632747 93.1574154379978 88.09034522695012 H 0.0 **** 0.06
10809 H 54.8321767162204 94.53054854807766 87.40670328812732 H 0.0 **** 0.06
10810 H 54.99045823213604 92.91183654334102 86.68345856418154 H 0.0 **** 0.06
10811 C 70.25729101616423 86.14897098093786 52.809429543865754 C 0.0 **** -0.24
10812 H 71.04960796091777 86.13654683069888 52.060892920783594 H 0.0 **** 0.06
10813 H 69.38354182518594 85.62466819261635 52.423405629680936 H 0.0 **** 0.06
10814 H 69.9911214691416 87.18119440007877 53.03911239478399 H 0.0 **** 0.06
10815 H 70.60626344547376 85.65485204815889 53.71659289114006 H 0.0 **** 0.06
10816 C 62.35972652327987 42.58132829237274 45.573726277053126 C 0.0 **** -0.24
10817 H 62.09837926797399 42.307332549911735 46.59599215837292 H 0.0 **** 0.06
10818 H 62.64667653421912 41.686139965768625 45.01999326344422 H 0.0 **** 0.06
10819 H 63.19376889657456 43.28255853449397 45.58832095922679 H 0.0 **** 0.06
10820 H 61.500361668745605 43.04693453729369 45.0912395518406 H 0.0 **** 0.06
10821 C 56.15976500177262 19.79020453604045 94.76299320022295 C 0.0 **** -0.24
10822 H 56.446374707564296 19.901896759402575 93.71699208633365 H 0.0 **** 0.06
10823 H 57.04688396515042 19.583996061836558 95.36210554263218 H 0.0 **** 0.06
10824 H 55.45471294634047 18.964108201060128 94.85997290245803 H 0.0 **** 0.06
10825 H 55.6916428363207 20.7102509767289 95.11058442172975 H 0.0 **** 0.06
10826 C 24.204970287716492 99.41891061274069 111.12921457447308 C 0.0 **** -0.24
10827 H 25.204886504332052 99.04268012242989 110.9169113699921 H 0.0 **** 0.06
10828 H 24.24262396478136 100.08940152246291 111.9878621846928 H 0.0 **** 0.06
10829 H 23.541629535165043 98.58231452979885 111.34960657007346 H 0.0 **** 0.06
10830 H 23.829472222829935 99.96113862080057 110.2613041124579 H 0.0 **** 0.06
10831 C 57.23534682496097 37.218598595634916 14.686720383258972 C 0.0 **** -0.24
10832 H 56.88765611949202 37.50694426311258 15.67840606013155 H 0.0 **** 0.06
10833 H 57.26078827841377 36.131606499542414 14.611411213022137 H 0.0 **** 0.06
10834 H 58.235544680970634 37.618271278230296 14.521782455204374 H 0.0 **** 0.06
10835 H 56.5558813946526 37.61962842668391 13.933709456336487 H 0.0 **** 0.06
10836 C 116.47822237235707 93.44560367151513 81.00054181031408 C 0.0 **** -0.24
10837 H 115.49520715028449 93.90617095167843 80.90346756600215 H 0.0 **** 0.06
10838 H 116.59295880299504 93.0419942265172 82.00692870516204 H 0.0 **** 0.06
10839 H 117.24904404829468 94.19484732627262 80.81948250689726 H 0.0 **** 0.06
10840 H 116.57530876664593 92.64074974318063 80.27207222104272 H 0.0 **** 0.06
10841 C 53.008483729435255 20.28934366391445 34.06933846859212 C 0.0 **** -0.24
10842 H 53.46227431934403 21.168901369231662 33.61275122841087 H 0.0 **** 0.06
10843 H 51.92317776873443 20.381454023295703 34.03582448486756 H 0.0 **** 0.06
10844 H 53.33519415838745 20.208649347723735 35.10644807504832 H 0.0 **** 0.06
10845 H 53.31495624062819 19.39792546825788 33.52090812543176 H 0.0 **** 0.06
10846 C 49.7514372080189 84.83724228837897 49.35608361875828 C 0.0 **** -0.24
10847 H 50.022756229515835 85.55233166141517 50.132723012753246 H 0.0 **** 0.06
10848 H 50.644138764530624 84.54972419914958 48.79886107401978 H 0.0 **** 0.06
10849 H 49.03043743398388 85.29334766816262 48.6777335812084 H 0.0 **** 0.06
10850 H 49.309129477111014 83.95273928069034 49.81591613977699 H 0.0 **** 0.06
10851 C 45.87944155089916 56.70939169129945 12.660341703041894 C 0.0 **** -0.24
10852 H 45.095681431388535 57.29703323310567 13.138739115191441 H 0.0 **** 0.06
10853 H 46.82324064895252 57.25303628522001 12.71103127305642 H 0.0 **** 0.06
10854 H 45.61526204256571 56.534097025612546 11.61722974068735 H 0.0 **** 0.06
10855 H 45.98191834296495 55.75347008420497 13.174843413371917 H 0.0 **** 0.06
10856 C 6.2431928347772185 74.10080978091358 68.8089393762447 C 0.0 **** -0.24
10857 H 6.189414940535926 74.62327598094421 67.85413858953447 H 0.0 **** 0.06
10858 H 5.240255616104093 73.99036327363902 69.22029691715184 H 0.0 **** 0.06
10859 H 6.859507600849369 74.67378657345492 69.50213221114075 H 0.0 **** 0.06
10860 H 6.686005013199662 73.1155754878867 68.65954597146157 H 0.0 **** 0.06
10861 C 26.056397075054903 28.904407160783137 68.6160671422179 C 0.0 **** -0.24
10862 H 27.10575911771423 28.618665469060772 68.67635363421465 H 0.0 **** 0.06
10863 H 25.816558412403424 29.189873353536427 67.59151012833564 H 0.0 **** 0.06
10864 H 25.870318675180897 29.74825279747762 69.28134528677111 H 0.0 **** 0.06
10865 H 25.431895944377928 28.06164505336085 68.9139496507583 H 0.0 **** 0.06
10866 C 72.78685397097806 112.08565430033175 2.1244790886304354 C 0.0 **** -0.24
10867 H 73.76575261381538 111.83337770415235 2.532857060438001 H 0.0 **** 0.06
10868 H 72.42094889424061 111.25505020096486 1.5209545489446246 H 0.0 **** 0.06
10869 H 72.87260392995546 112.97670088234563 1.5023484610862923 H 0.0 **** 0.06
10870 H 72.09168145436817 112.27716842028917 2.941373839421889 H 0.0 **** 0.06
10871 C 18.495421976173034 26.28183216284006 2.734125426647566 C 0.0 **** -0.24
10872 H 18.56147106290717 25.204022770092052 2.888210138279689 H 0.0 **** 0.06
10873 H 19.484898538828514 26.725564626461534 2.8508785389067413 H 0.0 **** 0.06
10874 H 17.814288594467303 26.712330649594804 3.469113194594641 H 0.0 **** 0.06
10875 H 18.122203488491078 26.482263232106533 1.7306909179397536 H 0.0 **** 0.06
10876 C 3.8159902663723244 38.39976938555091 76.2904000848801 C 0.0 **** -0.24
10877 H 2.8278927260122657 38.28779612897651 76.73616659251064 H 0.0 **** 0.06
10878 H 3.7116448579525354 38.673240745638196 75.23987445975362 H 0.0 **** 0.06
10879 H 4.358596855337254 37.457842377255105 76.36976103717203 H 0.0 **** 0.06
10880 H 4.365305546840261 39.179969523853856 76.81662056436102 H 0.0 **** 0.06
10881 C 14.385383122292641 22.653134853115162 60.210734567156045 C 0.0 **** -0.24
10882 H 15.19272639485079 23.32128929003946 59.91004520948676 H 0.0 **** 0.06
10883 H 14.176133566949186 22.791483225087376 61.27188958500718 H 0.0 **** 0.06
10884 H 14.683342558064947 21.619816068922148 60.03074545033889 H 0.0 **** 0.06
10885 H 13.490977789673693 22.87947868994209 59.63050691930048 H 0.0 **** 0.06
10886 C 11.074994851524409 72.62626561527759 68.65701861547706 C 0.0 **** -0.24
10887 H 10.40796111983365 72.69153462631101 69.51715382596558 H 0.0 **** 0.06
10888 H 11.514953311960937 71.62998596278092 68.61375233720591 H 0.0 **** 0.06
10889 H 11.8663938978242 73.36945498048135 68.75606762731601 H 0.0 **** 0.06
10890 H 10.510218430381592 72.81492038993116 67.7441174540647 H 0.0 **** 0.06
10891 C 12.105305220857971 89.25931960372185 22.902890264749765 C 0.0 **** -0.24
10892 H 12.294073066777369 90.332804589127 22.913246719448658 H 0.0 **** 0.06
10893 H 13.028584930750714 88.73062154979542 22.666296720896966 H 0.0 **** 0.06
10894 H 11.350878465015143 89.02918757916112 22.150463457563557 H 0.0 **** 0.06
10895 H 11.747545110996963 88.94455941942786 23.883997490944466 H 0.0 **** 0.06
10896 C 103.37206380610482 55.89290946413382 60.67566585808185 C 0.0 **** -0.24
10897 H 104.43639825831528 55.91016460602856 60.907426355050255 H 0.0 **** 0.06
10898 H 103.19572477038199 56.425858986394246 59.741177261135725 H 0.0 **** 0.06
10899 H 102.81712700076056 56.37446750073346 61.480340652571506 H 0.0 **** 0.06
10900 H 103.03911837383419 54.85999888284783 60.572900825042744 H 0.0 **** 0.06
10901 C 84.56188848586163 62.59664018654107 21.133109790853098 C 0.0 **** -0.24
10902 H 83.9471957993961 61.73129950402667 20.88719534029508 H 0.0 **** 0.06
10903 H 85.14060041606689 62.89216742088475 20.2581082415403 H 0.0 **** 0.06
10904 H 85.2393790133834 62.3412301303245 21.94829743547473 H 0.0 **** 0.06
10905 H 83.91907284945617 63.42273278358389 21.440719567249744 H 0.0 **** 0.06
10906 C 3.310678123896892 11.550054396732264 46.10657523229301 C 0.0 **** -0.24
10907 H 4.205542802125377 11.014297004326579 46.42555780112215 H 0.0 **** 0.06
10908 H 2.803684260341269 10.978612303814373 45.32800100755375 H 0.0 **** 0.06
10909 H 3.5931093154879026 12.527918922539953 45.71502800618546 H 0.0 **** 0.06
10910 H 2.6422550692110676 11.677858521345001 46.9573585347612 H 0.0 **** 0.06
10911 C 64.78840704728393 75.15366205339654 71.58805874605983 C 0.0 **** -0.24
10912 H 64.28689975444186 74.43826878469727 70.93529649893657 H 0.0 **** 0.06
10913 H 65.31304684105572 75.89273198284823 70.98119435247935 H 0.0 **** 0.06
10914 H 65.50478390712408 74.62828955171327 72.2199824154836 H 0.0 **** 0.06
10915 H 64.04983264711714 75.65423989665013 72.21379288996928 H 0.0 **** 0.06
10916 C 105.55953420636558 37.01013005998371 96.48815548426711 C 0.0 **** -0.24
10917 H 106.3222940063277 37.61105560190785 95.99308221239318 H 0.0 **** 0.06
10918 H 105.63758076391395 35.975627056787005 96.15191165404144 H 0.0 **** 0.06
10919 H 104.57238378693305 37.399267279910106 96.2401357229331 H 0.0 **** 0.06
10920 H 105.70686815914553 37.05356192598779 97.56743393216715 H 0.0 **** 0.06
10921 C 52.92724308960203 30.603231078484583 100.62040985736593 C 0.0 **** -0.24
10922 H 52.29581526410652 29.97236049036809 101.24621236985897 H 0.0 **** 0.06
10923 H 53.22527855965808 31.489365854846568 101.1814335887903 H 0.0 **** 0.06
10924 H 52.37289438142551 30.904084280408227 99.7319587474556 H 0.0 **** 0.06
10925 H 53.815847440960454 30.045067952576886 100.32229928404143 H 0.0 **** 0.06
10926 C 64.62223511400549 50.045222962150035 52.808651540537795 C 0.0 **** -0.24
10927 H 64.90962827116002 49.9433420269464 51.761915160894716 H 0.0 **** 0.06
10928 H 63.648938029379735 50.531425108279876 52.87283729295828 H 0.0 **** 0.06
10929 H 65.36503520474318 50.64902689498521 53.33177725749081 H 0.0 **** 0.06
10930 H 64.56692080197368 49.058302217091835 53.268294176940316 H 0.0 **** 0.06
10931 C 33.757443561009495 68.86504129117174 10.841760702663919 C 0.0 **** -0.24
10932 H 33.49805231239401 69.82650107306475 11.282590278798523 H 0.0 **** 0.06
10933 H 34.09071364431668 69.01344658510277 9.814228446653743 H 0.0 **** 0.06
10934 H 32.88357686824958 68.2137303369187 10.849350294573199 H 0.0 **** 0.06
10935 H 34.558430587553744 68.40425245817147 11.420963671296477 H 0.0 **** 0.06
10936 C 59.81666366543704 82.30757858352064 19.791036569239523 C 0.0 **** -0.24
10937 H 58.76504242003215 82.07898738794165 19.96256895805055 H 0.0 **** 0.06
10938 H 60.435600747452774 81.54935112059857 20.27183864314915 H 0.0 **** 0.06
10939 H 60.048111090181415 83.2865659810607 20.211597359564408 H 0.0 **** 0.06
10940 H 60.016081149621094 82.3155718519798 18.71977362073896 H 0.0 **** 0.06
10941 C 34.85929913658278 2.9062527607610207 9.546999385045496 C 0.0 **** -0.24
10942 H 35.58809363344639 2.87337803140025 10.357601921911993 H 0.0 **** 0.06
10943 H 35.00249684847775 2.04324908754721 8.895436076635889 H 0.0 **** 0.06
10944 H 34.99550758506274 3.822723675151849 8.972948093569954 H 0.0 **** 0.06
10945 H 33.85225846513336 2.8847453210669443 9.963690028636734 H 0.0 **** 0.06
10946 C 26.127584700259717 58.37343684791952 3.096154972445575 C 0.0 **** -0.24
10947 H 26.15201617975174 57.47387970800844 3.7109879639975674 H 0.0 **** 0.06
10948 H 27.111827501437006 58.538997923093916 2.657037381523452 H 0.0 **** 0.06
10949 H 25.857028783537658 59.228960942303274 3.71543327807764 H 0.0 **** 0.06
10950 H 25.390224545711135 58.250886211184906 2.303254050119591 H 0.0 **** 0.06
10951 C 1.9135740690009015 64.66840020156283 24.58968934023742 C 0.0 **** -0.24
10952 H 1.677109511580909 65.48883111456652 23.911792425897197 H 0.0 **** 0.06
10953 H 1.0008564423548592 64.12185605037541 24.829830281905465 H 0.0 **** 0.06
10954 H 2.3496927973601487 65.06886150737597 25.50548398624575 H 0.0 **** 0.06
10955 H 2.6254339009864793 63.99679919136759 24.111724777721832 H 0.0 **** 0.06
10956 C 32.01471712020234 89.31092275508132 115.48762840198224 C 0.0 **** -0.24
10957 H 32.26849463837642 88.25870348537154 115.61254074897195 H 0.0 **** 0.06
10958 H 30.954459621676044 89.456558168221 115.69486725996039 H 0.0 **** 0.06
10959 H 32.231325416455746 89.6189338409275 114.46490039986828 H 0.0 **** 0.06
10960 H 32.606215935542025 89.91139357837832 116.17986362228851 H 0.0 **** 0.06
10961 C 37.96732664736402 31.8972741192718 18.600414906757493 C 0.0 **** -0.24
10962 H 38.24709196858436 31.276332473120704 17.74922372868376 H 0.0 **** 0.06
10963 H 38.04196222678115 31.312227766414935 19.516910868373387 H 0.0 **** 0.06
10964 H 36.94206198363801 32.24595988161738 18.474255441596767 H 0.0 **** 0.06
10965 H 38.637392435654704 32.75484282810572 18.65975551952711 H 0.0 **** 0.06
10966 C 75.82508648430445 80.74111354753498 2.6708112206621877 C 0.0 **** -0.24
10967 H 75.39750436917194 80.02300941798376 3.3704200788002936 H 0.0 **** 0.06
10968 H 76.44146161380422 81.45578994823268 3.215669806887206 H 0.0 **** 0.06
10969 H 75.02310721491477 81.2691851419361 2.156399783387201 H 0.0 **** 0.06
10970 H 76.43963166683187 80.21346583527307 1.941116966383447 H 0.0 **** 0.06
10971 C 114.70370996636578 55.60707449795353 39.847300501852374 C 0.0 **** -0.24
10972 H 115.48461952275167 56.36349890632292 39.92866989790184 H 0.0 **** 0.06
10973 H 114.69104104757562 55.20706008759717 38.83362475671595 H 0.0 **** 0.06
10974 H 113.73727194530747 56.056796498451746 40.07370988429659 H 0.0 **** 0.06
10975 H 114.90426566911 54.80103251170772 40.55385365391817 H 0.0 **** 0.06
10976 C 101.449370490913 48.66518829346103 94.26385597802752 C 0.0 **** -0.24
10977 H 101.48736327824787 49.08311194487595 95.26927672223025 H 0.0 **** 0.06
10978 H 102.32944330924772 48.984287085216266 93.70508644373345 H 0.0 **** 0.06
10979 H 100.54994394298157 49.01773212634856 93.75794554692877 H 0.0 **** 0.06
10980 H 101.430477838576 47.57733754747011 94.32170348424594 H 0.0 **** 0.06
10981 C 71.36863647574683 50.05778078638909 54.70459163824802 C 0.0 **** -0.24
10982 H 71.19453292602725 49.45954742319023 55.59925324821074 H 0.0 **** 0.06
10983 H 72.38891033523112 49.89764949141133 54.3544718692969 H 0.0 **** 0.06
10984 H 71.22558463288374 51.11187381526841 54.93862266850192 H 0.0 **** 0.06
10985 H 70.66636565316207 49.7587163732461 53.92640994807587 H 0.0 **** 0.06
10986 C 72.15255741184106 67.78193046361716 80.51853343610756 C 0.0 **** -0.24
10987 H 73.10505992683625 67.25975235540793 80.60797918195041 H 0.0 **** 0.06
10988 H 72.30139267284534 68.7182727544911 79.9803338683922 H 0.0 **** 0.06
10989 H 71.75846199046973 67.99326322292131 81.51242066024582 H 0.0 **** 0.06
10990 H 71.44633590590476 67.15669583251969 79.97245707145007 H 0.0 **** 0.06
10991 C 85.41632252406936 13.769658238810706 90.61563056580982 C 0.0 **** -0.24
10992 H 84.35764990789272 13.794621457885455 90.87367841534154 H 0.0 **** 0.06
10993 H 86.01207988924216 13.723399994690226 91.52737829432027 H 0.0 **** 0.06
10994 H 85.67496388488169 14.66963010590743 90.05763785987301 H 0.0 **** 0.06
10995 H 85.62077302631195 12.891705621589722 90.00262585191098 H 0.0 **** 0.06
10996 C 49.24363930645629 7.7704931009891425 13.122517079138845 C 0.0 **** -0.24
10997 H 49.301645765372086 8.784610652538845 13.517636555773691 H 0.0 **** 0.06
10998 H 49.929168284735766 7.66890374898577 12.280888763100705 H 0.0 **** 0.06
10999 H 48.22546840344825 7.570077843800902 12.788820643146664 H 0.0 **** 0.06
11000 H 49.51701642924459 7.061103541441071 13.902705445140583 H 0.0 **** 0.06
11001 C 3.264906657194672 26.02447316886486 100.96336312084836 C 0.0 **** -0.24
11002 H 3.510901306009231 26.731702450400803 101.75467776931893 H 0.0 **** 0.06
11003 H 3.819223363008092 26.283130570685188 100.06031882595303 H 0.0 **** 0.06
11004 H 2.1954600496389958 26.06685126734976 100.75820320686623 H 0.0 **** 0.06
11005 H 3.5345916736610548 25.016352421721223 101.2794298370319 H 0.0 **** 0.06
11006 C 43.521251722844 92.16426871414365 13.179089822597405 C 0.0 **** -0.24
11007 H 43.900521660009176 91.31079768846399 13.74203578325654 H 0.0 **** 0.06
11008 H 43.313266257641686 92.98690578309862 13.863852492695287 H 0.0 **** 0.06
11009 H 42.60459223369986 91.87890310520334 12.663415127578958 H 0.0 **** 0.06
11010 H 44.26728697677329 92.47765669652597 12.449214554998761 H 0.0 **** 0.06
11011 C 22.96262968381228 111.38067829077997 90.69325146628088 C 0.0 **** -0.24
11012 H 23.976431729802897 111.11346264131981 90.99460987329635 H 0.0 **** 0.06
11013 H 22.77621687618509 111.0167008974216 89.68312213717377 H 0.0 **** 0.06
11014 H 22.851889230282467 112.46456201605912 90.71651436220705 H 0.0 **** 0.06
11015 H 22.24914635185698 110.92780511469533 91.38139532241922 H 0.0 **** 0.06
11016 C 91.01628393508861 36.851727276324205 112.72778575700653 C 0.0 **** -0.24
11017 H 91.40521304524609 37.53891871504884 113.4797469875838 H 0.0 **** 0.06
11018 H 91.84778143626707 36.35355448347725 112.22768333268283 H 0.0 **** 0.06
11019 H 90.43148810028026 37.40829942775986 111.99560352132349 H 0.0 **** 0.06
11020 H 90.38327032718487 36.107341397819795 113.21003254333445 H 0.0 **** 0.06
11021 C 35.689883035062905 86.19579307284559 34.936884249544335 C 0.0 **** -0.24
11022 H 35.40550649085327 85.60006152871188 34.06934376366604 H 0.0 **** 0.06
11023 H 35.99397292390921 85.53381762507382 35.747615035510705 H 0.0 **** 0.06
11024 H 34.8389168072203 86.79752104771498 35.25771840321653 H 0.0 **** 0.06
11025 H 36.51847139168183 86.85195663550726 34.6714934985975 H 0.0 **** 0.06
11026 C 24.181064953619412 28.149734360877574 0.8060069087173929 C 0.0 **** -0.24
11027 H 23.386955616999735 28.83278682621136 1.1076246514385844 H 0.0 **** 0.06
11028 H 24.137107319723796 27.249340687071538 1.4184271110473219 H 0.0 **** 0.06
11029 H 25.147798535083787 28.634215688569725 0.9397549593901715 H 0.0 **** 0.06
11030 H 24.049636801701027 27.88284538928707 -0.24292422602312058 H 0.0 **** 0.06
11031 C 9.989952328462778 98.38179573402755 77.70976069031113 C 0.0 **** -0.24
11032 H 10.408897771331226 99.12498369941676 78.38837836516961 H 0.0 **** 0.06
11033 H 9.002597387687274 98.70719986145019 77.38073637902562 H 0.0 **** 0.06
11034 H 9.905930077256926 97.42540584143325 78.2254516627417 H 0.0 **** 0.06
11035 H 10.643329834877136 98.27185309424584 76.84445958791508 H 0.0 **** 0.06
11036 C 113.3901100997312 91.32523323565846 90.59883836500848 C 0.0 **** -0.24
11037 H 113.40879729877003 92.38985612293942 90.36480740251486 H 0.0 **** 0.06
11038 H 113.78629893363029 91.16707110118358 91.60197829850671 H 0.0 **** 0.06
11039 H 114.00215285451159 90.78380669773969 89.87717946729421 H 0.0 **** 0.06
11040 H 112.36459276279646 90.96112706483692 90.55097014630167 H 0.0 **** 0.06
11041 C 103.24567711267059 34.3210230930699 74.49603106455854 C 0.0 **** -0.24
11042 H 103.82288654589428 34.80167786336864 73.70538329044251 H 0.0 **** 0.06
11043 H 103.91303760814682 34.03103149646762 75.30746584311476 H 0.0 **** 0.06
11044 H 102.75133039845883 33.43447809664673 74.0964125240894 H 0.0 **** 0.06
11045 H 102.49500722816123 35.016846913362514 74.8717324716458 H 0.0 **** 0.06
11046 C 70.0432564551569 30.42020087023559 54.23455688168545 C 0.0 **** -0.24
11047 H 69.55146516794923 30.21152628246375 55.18493619861108 H 0.0 **** 0.06
11048 H 69.35555169128756 30.212491073374565 53.41558051377242 H 0.0 **** 0.06
11049 H 70.92676614610511 29.788726840879917 54.13708488970299 H 0.0 **** 0.06
11050 H 70.34199496574999 31.468155103289405 54.20315916494112 H 0.0 **** 0.06
11051 C 47.09105431183346 39.59383568925952 33.24671140377595 C 0.0 **** -0.24
11052 H 46.93402863882963 39.12517392182744 34.218257934266184 H 0.0 **** 0.06
11053 H 46.456461379822116 40.47744611923474 33.16355419188242 H 0.0 **** 0.06
11054 H 46.83452482344083 38.88661328516122 32.45772301116189 H 0.0 **** 0.06
11055 H 48.13563920102115 39.885427080954 33.14822633486167 H 0.0 **** 0.06
11056 C 27.130541249681457 4.03167918336689 96.97098556397157 C 0.0 **** -0.24
11057 H 27.50140013573312 4.988418605861597 97.3378655134039 H 0.0 **** 0.06
11058 H 27.920256790139433 3.522078556664212 96.41814997676693 H 0.0 **** 0.06
11059 H 26.27741981074786 4.1999173905648775 96.3143629655531 H 0.0 **** 0.06
11060 H 26.822000110531633 3.414258848625394 97.81571816946473 H 0.0 **** 0.06
11061 C 38.38641400988632 101.78042701903502 23.31417476580458 C 0.0 **** -0.24
11062 H 37.74545510110846 100.95097735498976 23.61095655527763 H 0.0 **** 0.06
11063 H 37.98220026516785 102.71275284280662 23.712092525372803 H 0.0 **** 0.06
11064 H 38.4273189625863 101.8376572761066 22.2264422379209 H 0.0 **** 0.06
11065 H 39.39043308424448 101.62274624137274 23.707441862199538 H 0.0 **** 0.06
11066 C 43.06115398419681 18.22036017448204 2.5326255085340197 C 0.0 **** -0.24
11067 H 42.40167324886505 17.363994594467044 2.6766629212143638 H 0.0 **** 0.06
11068 H 42.707787447139026 18.812416255175833 1.688364730548349 H 0.0 **** 0.06
11069 H 44.07300934576563 17.868896143688602 2.3318462580511845 H 0.0 **** 0.06
11070 H 43.061310616829445 18.834114848550144 3.433151864515141 H 0.0 **** 0.06
11071 C 35.03272576472051 45.211272774717884 10.659739316456921 C 0.0 **** -0.24
11072 H 34.49490739943241 45.50697837690868 11.560330872990733 H 0.0 **** 0.06
11073 H 35.71220983599102 44.392679284743934 10.89447447264655 H 0.0 **** 0.06
11074 H 35.60289131111898 46.06138899547935 10.283212670139278 H 0.0 **** 0.06
11075 H 34.32047423984079 44.88682069145895 9.901280244170096 H 0.0 **** 0.06
11076 C 42.19594335308352 53.364059138221954 53.32391523233035 C 0.0 **** -0.24
11077 H 41.920420059381414 54.13215998906301 52.601710600773195 H 0.0 **** 0.06
11078 H 43.1002444049941 53.66970511003971 53.851245095157296 H 0.0 **** 0.06
11079 H 42.37997365875853 52.424851862504184 52.802311833338976 H 0.0 **** 0.06
11080 H 41.38513317677672 53.230626363079956 54.0395080454539 H 0.0 **** 0.06
11081 C 84.12868230406292 103.9642681538258 84.54261975193236 C 0.0 **** -0.24
11082 H 83.81384267171134 104.02198391791251 85.5841217499009 H 0.0 **** 0.06
11083 H 84.72261019138412 104.84400301185983 84.29206258661989 H 0.0 **** 0.06
11084 H 83.25009831754656 103.92359492599945 83.89880267062881 H 0.0 **** 0.06
11085 H 84.72915620879039 103.0662612468675 84.393900847341 H 0.0 **** 0.06
11086 C 9.98780342310846 99.09122939920428 40.88449125065432 C 0.0 **** -0.24
11087 H 10.915884239760317 98.99656799332519 41.44947962880417 H 0.0 **** 0.06
11088 H 9.64113942159355 100.12349688754094 40.92773987719096 H 0.0 **** 0.06
11089 H 9.232033080396263 98.43495957089686 41.31556624117499 H 0.0 **** 0.06
11090 H 10.164285462020132 98.8095996483815 39.8457986034806 H 0.0 **** 0.06
11091 C 31.846399477597117 61.04952826147539 90.64720085794389 C 0.0 **** -0.24
11092 H 32.27044849252684 61.36882330460995 91.59849660441475 H 0.0 **** 0.06
11093 H 31.089094033479 60.28601863069295 90.825265680212 H 0.0 **** 0.06
11094 H 32.63566453350259 60.63989088007921 90.01705608073877 H 0.0 **** 0.06
11095 H 31.389972275916847 61.90428742972588 90.14802799843287 H 0.0 **** 0.06
11096 C 13.844489808341962 17.331015339440626 13.348371775046946 C 0.0 **** -0.24
11097 H 12.9578268692415 17.543276126817602 12.750041744462877 H 0.0 **** 0.06
11098 H 14.605582625496595 16.870223659503495 12.717531537429487 H 0.0 **** 0.06
11099 H 13.581972697809505 16.65050671249452 14.157224812444902 H 0.0 **** 0.06
11100 H 14.232538763092322 18.26020751417326 13.76586487772574 H 0.0 **** 0.06
11101 C 83.9997806873595 60.55933629727468 69.81292757112368 C 0.0 **** -0.24
11102 H 83.13697731128553 59.973129759960415 69.49668747642832 H 0.0 **** 0.06
11103 H 83.66527485625227 61.38586703907694 70.44020452406627 H 0.0 **** 0.06
11104 H 84.51229766140085 60.95230566692993 68.9353365809757 H 0.0 **** 0.06
11105 H 84.68181777091283 59.92540978880919 70.37957664177858 H 0.0 **** 0.06
11106 C 73.39697595946853 48.118730029346196 116.63897609117026 C 0.0 **** -0.24
11107 H 72.52468201599294 48.75133186795813 116.47313644749298 H 0.0 **** 0.06
11108 H 73.14617338186031 47.331730795248745 117.34952783893567 H 0.0 **** 0.06
11109 H 74.21182417811906 48.722908928881125 117.03747927846385 H 0.0 **** 0.06
11110 H 73.70538421895901 47.6720974759435 115.69310382424189 H 0.0 **** 0.06
11111 C 62.29179978975213 50.697160845364635 89.10132726876503 C 0.0 **** -0.24
11112 H 62.548429700578936 49.667754047063255 88.84779541274071 H 0.0 **** 0.06
11113 H 61.668023289813334 51.12018268633116 88.3133075842924 H 0.0 **** 0.06
11114 H 63.204314315557355 51.28502860741571 89.19975132747001 H 0.0 **** 0.06
11115 H 61.746636329708025 50.712900961231895 90.04557123890825 H 0.0 **** 0.06
11116 C 78.85150682589676 89.98721845252462 45.09398042338927 C 0.0 **** -0.24
11117 H 79.16178524403466 91.02022815097914 44.93702874206505 H 0.0 **** 0.06
11118 H 78.07550217264475 89.9537384509454 45.85858190529851 H 0.0 **** 0.06
11119 H 79.70775230742734 89.39647863045408 45.417995314111494 H 0.0 **** 0.06
11120 H 78.46085774704801 89.58075064764603 44.16154665071613 H 0.0 **** 0.06
11121 C 66.34856019712018 25.267311406950938 63.11689548542008 C 0.0 **** -0.24
11122 H 66.38780023968613 25.783027766761307 64.0766842430929 H 0.0 **** 0.06
11123 H 66.6951627455388 24.241827978124206 63.24046294223461 H 0.0 **** 0.06
11124 H 66.98826434645201 25.783930933831527 62.40116058195152 H 0.0 **** 0.06
11125 H 65.32169931062865 25.26317314377613 62.75022640998298 H 0.0 **** 0.06
11126 C 27.63904177253528 108.4791960596396 16.26531725680897 C 0.0 **** -0.24
11127 H 27.87106646042494 109.21342476081907 15.494271026691507 H 0.0 **** 0.06
11128 H 27.18398604803602 107.6015533715146 15.805957721235785 H 0.0 **** 0.06
11129 H 26.94528520906735 108.91462845727312 16.985291627805708 H 0.0 **** 0.06
11130 H 28.55625947961184 108.18710179063339 16.777093779972972 H 0.0 **** 0.06
11131 C 1.1091326415615868 4.564101110210402 61.27169972717032 C 0.0 **** -0.24
11132 H 1.5337091635824152 3.8753065219578957 62.00271506147772 H 0.0 **** 0.06
11133 H 1.896152113254061 4.9092709638426015 60.60036913918211 H 0.0 **** 0.06
11134 H 0.672048050270746 5.417738540273831 61.789227249492065 H 0.0 **** 0.06
11135 H 0.3384313449553531 4.053191241025729 60.696124292973174 H 0.0 **** 0.06
11136 C 35.651756440173074 117.5527437729022 80.12307544552735 C 0.0 **** -0.24
11137 H 34.96201703117066 118.3314269681287 80.44841002453339 H 0.0 **** 0.06
11138 H 35.22747111970793 117.02446388213876 79.26893674181997 H 0.0 **** 0.06
11139 H 35.81560183683533 116.84955599244869 80.940062128795 H 0.0 **** 0.06
11140 H 36.60140062248027 118.00487694417373 79.83670662628634 H 0.0 **** 0.06
11141 C 9.126451818513203 71.24983743222563 118.79069585568779 C 0.0 **** -0.24
11142 H 10.005418120557295 70.6418882128632 118.57728888823473 H 0.0 **** 0.06
11143 H 9.203154585409663 71.65674895772528 119.7992652873942 H 0.0 **** 0.06
11144 H 8.231293682022994 70.63295204879515 118.71336612028041 H 0.0 **** 0.06
11145 H 9.066961476396074 72.06720227926735 118.0720588312036 H 0.0 **** 0.06
11146 C 110.16106584479994 11.90142951726554 53.954276379593686 C 0.0 **** -0.24
11147 H 109.31409495386953 12.438094729737998 54.38096630177517 H 0.0 **** 0.06
11148 H 111.03579144594934 12.552653567678732 53.94516597841867 H 0.0 **** 0.06
11149 H 109.92280661335425 11.598455221444283 52.93419121434391 H 0.0 **** 0.06
11150 H 110.37197722916108 11.017391078670641 54.55652469371755 H 0.0 **** 0.06
11151 C 36.54672706634162 70.75605591670711 91.15790537703637 C 0.0 **** -0.24
11152 H 37.57946659272355 71.09952038611004 91.22246412805055 H 0.0 **** 0.06
11153 H 35.94825257466536 71.26122104431215 91.9163901024497 H 0.0 **** 0.06
11154 H 36.51071944259391 69.67935626911051 91.3227685596502 H 0.0 **** 0.06
11155 H 36.14917172477536 70.98669145602867 90.16903651500388 H 0.0 **** 0.06
11156 C 42.6580531296765 18.56585449334355 44.943052199003034 C 0.0 **** -0.24
11157 H 41.93856494596217 18.99112221722106 45.644238912595256 H 0.0 **** 0.06
11158 H 42.92350649110847 17.558133685949514 45.26425138481784 H 0.0 **** 0.06
11159 H 43.552410850956164 19.18702713325459 44.91948780426992 H 0.0 **** 0.06
11160 H 42.215139300968985 18.525835601512284 43.94842596943067 H 0.0 **** 0.06
11161 C 118.57083690464005 74.26897950296217 112.04239712716969 C 0.0 **** -0.24
11162 H 118.29699583061824 74.8917951406633 112.89334968329638 H 0.0 **** 0.06
11163 H 117.7587739503005 73.57512402844776 111.82406496248117 H 0.0 **** 0.06
11164 H 119.47462453236712 73.70710731890836 112.27909982846691 H 0.0 **** 0.06
11165 H 118.75264498208742 74.90114250730136 111.17366052365949 H 0.0 **** 0.06
11166 C 40.75325165426679 3.2305901673030633 85.3114477898392 C 0.0 **** -0.24
11167 H 40.59903021636728 2.2062727029270945 85.64900516618894 H 0.0 **** 0.06
11168 H 41.44178031446273 3.234241565924407 84.46602980894713 H 0.0 **** 0.06
11169 H 41.17367617512272 3.821692439395804 86.12491744696365 H 0.0 **** 0.06
11170 H 39.79907729892099 3.6599574779895363 85.00503203295432 H 0.0 **** 0.06
11171 C 61.83549936843698 105.67384661184309 89.2665237340363 C 0.0 **** -0.24
11172 H 62.899854709131965 105.50037387167364 89.42392914712747 H 0.0 **** 0.06
11173 H 61.28233629115294 105.36335760922299 90.15420323196622 H 0.0 **** 0.06
11174 H 61.497269175004526 105.09546964177864 88.40652372799133 H 0.0 **** 0.06
11175 H 61.66287385779378 106.73403423060026 89.08256126986029 H 0.0 **** 0.06
11176 C 20.43971501377257 15.368176315859898 85.44985057027768 C 0.0 **** -0.24
11177 H 20.433409331147857 14.703345278909467 86.31343755692424 H 0.0 **** 0.06
11178 H 19.98764026577203 16.32188561406724 85.72225939562523 H 0.0 **** 0.06
11179 H 19.870034362400418 14.914235227525182 84.6389091296387 H 0.0 **** 0.06
11180 H 21.467465770511353 15.530859171898555 85.1252858798772 H 0.0 **** 0.06
11181 C 89.83713745414116 11.465746999994252 62.74178308951317 C 0.0 **** -0.24
11182 H 89.37058879573362 10.797110363343279 63.46494831526726 H 0.0 **** 0.06
11183 H 90.92165405033518 11.416690148052282 62.84946720465138 H 0.0 **** 0.06
11184 H 89.49945530080356 12.48574943561141 62.92035873092468 H 0.0 **** 0.06
11185 H 89.55810653077185 11.16133786615515 61.732480133288966 H 0.0 **** 0.06
11186 C 8.163260972149143 70.80466909358816 35.6980984272229 C 0.0 **** -0.24
11187 H 8.396337732550315 71.1697595367157 34.69749021014988 H 0.0 **** 0.06
11188 H 8.116953815876926 69.71542819594058 35.68527183070111 H 0.0 **** 0.06
11189 H 7.202388848472566 71.20650559016329 36.017027361646996 H 0.0 **** 0.06
11190 H 8.940818186697332 71.1273767086117 36.39122194017031 H 0.0 **** 0.06
11191 C 9.883071357816483 92.127634515777 62.86762374054186 C 0.0 **** -0.24
11192 H 9.119184606337967 92.63040562370074 62.27418475059491 H 0.0 **** 0.06
11193 H 9.643966836611256 92.22754429045696 63.92638747051495 H 0.0 **** 0.06
11194 H 10.853742853095039 92.58133187665669 62.668957971816354 H 0.0 **** 0.06
11195 H 9.914006041830916 91.0708668722786 62.59925299334523 H 0.0 **** 0.06
11196 C 42.514593204415206 86.4918485475666 93.3701983001682 C 0.0 **** -0.24
11197 H 43.259096510034595 86.27199175780544 94.13544688492118 H 0.0 **** 0.06
11198 H 42.457407139561326 87.56975528286199 93.21687046181896 H 0.0 **** 0.06
11199 H 41.54233135112344 86.11798400070916 93.69119636676427 H 0.0 **** 0.06
11200 H 42.799830525910124 86.00588664145457 92.43640852389433 H 0.0 **** 0.06
11201 C 67.90865931548029 45.45918829235936 106.88565240927582 C 0.0 **** -0.24
11202 H 67.43341016630535 46.426086050028175 107.04613433427335 H 0.0 **** 0.06
11203 H 68.9785914694146 45.542524390211696 107.07744102273492 H 0.0 **** 0.06
11204 H 67.74762428743571 45.141728081617615 105.85451836765844 H 0.0 **** 0.06
11205 H 67.47348662013465 44.72464036225034 107.5629260655474 H 0.0 **** 0.06
11206 C 53.897894185470534 29.25111700515282 0.16702951742948358 C 0.0 **** -0.24
11207 H 54.97376140376451 29.25843217693982 -0.007815519084829248 H 0.0 **** 0.06
11208 H 53.658241000203304 29.925200947713904 0.9897881676917848 H 0.0 **** 0.06
11209 H 53.5785664051175 28.240458615131644 0.4207497125185 H 0.0 **** 0.06
11210 H 53.38044443834161 29.579550403898594 -0.7345828471154618 H 0.0 **** 0.06
11211 C 34.95005105771003 70.01802575042751 117.57151087745041 C 0.0 **** -0.24
11212 H 35.583023996197255 70.88834005407472 117.744383184213 H 0.0 **** 0.06
11213 H 34.04115672411302 70.32710652740508 117.05381615834662 H 0.0 **** 0.06
11214 H 34.687309713860145 69.56474556406414 118.52744321805946 H 0.0 **** 0.06
11215 H 35.48832244459658 69.29358911358867 116.960575509356 H 0.0 **** 0.06
11216 C 9.163138631644642 103.8646449164753 27.301285761650377 C 0.0 **** -0.24
11217 H 10.150609423307543 103.44208013495822 27.48370270692908 H 0.0 **** 0.06
11218 H 8.540903821342184 103.12727288612481 26.794184296857736 H 0.0 **** 0.06
11219 H 9.257856002769046 104.75279481149894 26.67592746687805 H 0.0 **** 0.06
11220 H 8.703185279160095 104.13643183331902 28.251328575936697 H 0.0 **** 0.06
11221 C 0.4301139465567303 21.783927225078486 17.549555151115783 C 0.0 **** -0.24
11222 H -0.1767264063341969 21.85382568416034 16.646661150836536 H 0.0 **** 0.06
11223 H 1.27092256239807 21.113633351596405 17.369812026776316 H 0.0 **** 0.06
11224 H -0.17872430384650784 21.393750628446554 18.365913437224577 H 0.0 **** 0.06
11225 H 0.8029657688366143 22.772781424611992 17.81383980379408 H 0.0 **** 0.06
11226 C 29.55541722556228 108.58694675355986 103.36672730127196 C 0.0 **** -0.24
11227 H 28.799576873351043 108.72801633885399 104.13950755452345 H 0.0 **** 0.06
11228 H 29.078670904723182 108.22659822826813 102.45501272407071 H 0.0 **** 0.06
11229 H 30.289969284658383 107.85693022694832 103.70606442792626 H 0.0 **** 0.06
11230 H 30.051286661387394 109.53680003195196 103.16629069805072 H 0.0 **** 0.06
11231 C 9.544512874028953 107.00736852218873 18.486415494888575 C 0.0 **** -0.24
11232 H 9.703354626578886 106.24412610445185 19.248160120123515 H 0.0 **** 0.06
11233 H 10.13558301059939 106.76674722790963 17.602881656576898 H 0.0 **** 0.06
11234 H 9.850719500328864 107.97790263534017 18.877036304685532 H 0.0 **** 0.06
11235 H 8.48813769039225 107.03965030997131 18.221166778738592 H 0.0 **** 0.06
11236 C 102.05567827023319 74.1552242777347 30.708061990833926 C 0.0 **** -0.24
11237 H 101.06289606127197 74.01533248091329 31.13710558771706 H 0.0 **** 0.06
11238 H 102.3464295620955 75.20245823982663 30.799267084547182 H 0.0 **** 0.06
11239 H 102.03915030879557 73.87334835627513 29.655164382617755 H 0.0 **** 0.06
11240 H 102.77234870110016 73.53094863292307 31.24058233080055 H 0.0 **** 0.06
11241 C 55.892484472911605 67.86711491308026 71.64894903923403 C 0.0 **** -0.24
11242 H 56.490162249728996 68.29633211906994 70.84523553719461 H 0.0 **** 0.06
11243 H 56.34371757500793 68.11548048753929 72.61039112790544 H 0.0 **** 0.06
11244 H 55.85530824938863 66.78313992246441 71.53416313995874 H 0.0 **** 0.06
11245 H 54.88185994634949 68.27158294908625 71.60626220451883 H 0.0 **** 0.06
11246 C 27.67602015062171 107.46335821032153 20.488920541026772 C 0.0 **** -0.24
11247 H 26.737046167276212 107.19949354404073 20.975034556970485 H 0.0 **** 0.06
11248 H 28.507244635013443 107.03314846618892 21.047616348182544 H 0.0 **** 0.06
11249 H 27.77878197259755 108.54857996233409 20.46068258065243 H 0.0 **** 0.06
11250 H 27.68018687218062 107.0725818514075 19.471258485124423 H 0.0 **** 0.06
11251 C 110.88988988286098 57.57542957462627 40.36297967159331 C 0.0 **** -0.24
11252 H 110.9910891046639 56.9734241641961 41.267443559780105 H 0.0 **** 0.06
11253 H 111.78592365491443 57.4638308413289 39.75177772631898 H 0.0 **** 0.06
11254 H 110.76262661552056 58.62291611077731 40.636916905012356 H 0.0 **** 0.06
11255 H 110.02042073722765 57.239102958877936 39.798569045231915 H 0.0 **** 0.06
11256 C 40.32052811828959 54.87109134538372 17.24315083667716 C 0.0 **** -0.24
11257 H 39.99080912220606 55.62824285045283 16.531784160975775 H 0.0 **** 0.06
11258 H 40.774262103452 54.04016317611405 16.7035302453815 H 0.0 **** 0.06
11259 H 39.464003815760776 54.51113611663047 17.81300863661849 H 0.0 **** 0.06
11260 H 41.053301003010944 55.30657124988732 17.923344771776897 H 0.0 **** 0.06
11261 C 42.93219202030437 31.73474154228746 59.84292660751035 C 0.0 **** -0.24
11262 H 43.71662248009366 32.12215825461273 60.49434414756797 H 0.0 **** 0.06
11263 H 43.34459964739861 30.955650931663158 59.20180545004763 H 0.0 **** 0.06
11264 H 42.54043945832865 32.54362045795233 59.226959607881895 H 0.0 **** 0.06
11265 H 42.12852193627711 31.319671177265626 60.45132497202144 H 0.0 **** 0.06
11266 C 101.82436064719772 62.861510940179436 84.44750673462318 C 0.0 **** -0.24
11267 H 101.65749921916208 62.99556769277776 85.51655755388657 H 0.0 **** 0.06
11268 H 100.87325325716239 62.942261775339354 83.91958940663497 H 0.0 **** 0.06
11269 H 102.25747287816358 61.87797822849574 84.26832887127338 H 0.0 **** 0.06
11270 H 102.5073494362552 63.63016732703955 84.0871344440016 H 0.0 **** 0.06
11271 C 40.35939449132567 81.05309069560647 37.95125308792558 C 0.0 **** -0.24
11272 H 41.2164243119515 80.52495998694974 37.53267998679999 H 0.0 **** 0.06
11273 H 39.64717885672965 80.33045099997429 38.35020215690139 H 0.0 **** 0.06
11274 H 39.8796846237768 81.6424414616549 37.16966259371458 H 0.0 **** 0.06
11275 H 40.69492596381835 81.7128408277816 38.75079164570465 H 0.0 **** 0.06
11276 C 72.91068665922768 54.20198060482173 85.0296508941594 C 0.0 **** -0.24
11277 H 73.72014531112029 53.78894784557224 84.42857257810192 H 0.0 **** 0.06
11278 H 73.17010039442215 55.21359050722569 85.34225048493758 H 0.0 **** 0.06
11279 H 72.75795522139549 53.57783228055368 85.91100873226216 H 0.0 **** 0.06
11280 H 71.99541557868281 54.22701743633772 84.43876127668068 H 0.0 **** 0.06
11281 C 44.22476849363254 106.94393103180121 39.50943105711755 C 0.0 **** -0.24
11282 H 44.86081266022637 107.75360282502118 39.15256562337413 H 0.0 **** 0.06
11283 H 44.74099594851161 106.3968894924501 40.29778014714401 H 0.0 **** 0.06
11284 H 44.00034696927102 106.26822334928937 38.684200381740155 H 0.0 **** 0.06
11285 H 43.29555966650004 107.35810563354184 39.902203243837846 H 0.0 **** 0.06
11286 C 57.50818592063357 69.14882208373501 42.08474617998624 C 0.0 **** -0.24
11287 H 56.63552921096862 68.51393339829741 41.93095345274226 H 0.0 **** 0.06
11288 H 58.41481230587956 68.55526332962387 41.96780532403997 H 0.0 **** 0.06
11289 H 57.47624846365411 69.57113238610822 43.08880869882515 H 0.0 **** 0.06
11290 H 57.50383689210437 69.95562030944535 41.35097485869241 H 0.0 **** 0.06
11291 C 99.03812168065028 75.4458429651892 55.529723969076315 C 0.0 **** -0.24
11292 H 99.1767046273512 76.50326615571598 55.7536648025108 H 0.0 **** 0.06
11293 H 98.58022019064731 75.33990537209394 54.546477816937795 H 0.0 **** 0.06
11294 H 98.39169149780054 74.99684386589692 56.2836333681862 H 0.0 **** 0.06
11295 H 100.00636014134778 74.94433815562488 55.53603529999873 H 0.0 **** 0.06
11296 C 104.06331426049695 42.67276614592748 71.44658362492126 C 0.0 **** -0.24
11297 H 104.24461005520374 41.645614219073764 71.76321326153422 H 0.0 **** 0.06
11298 H 103.17438156407135 42.70738439545852 70.81734617961732 H 0.0 **** 0.06
11299 H 104.92212791146241 43.0364441116393 70.88302619270755 H 0.0 **** 0.06
11300 H 103.91230781540835 43.30118621350306 72.32469345961405 H 0.0 **** 0.06
11301 C 45.96276304718779 54.80732202968551 100.02639041271306 C 0.0 **** -0.24
11302 H 45.27621327246419 54.45526781229354 99.25592895944129 H 0.0 **** 0.06
11303 H 45.46032091621103 54.79399572892757 100.9932295115421 H 0.0 **** 0.06
11304 H 46.27820352025799 55.824744251409605 99.79370620541528 H 0.0 **** 0.06
11305 H 46.83524865851618 54.15463754395515 100.05996725229289 H 0.0 **** 0.06
11306 C 13.712271481357853 20.34252699357274 96.17385587030066 C 0.0 **** -0.24
11307 H 14.166247310681186 21.009417271548426 96.90777272721863 H 0.0 **** 0.06
11308 H 13.528980390608833 19.369926077098206 96.63200811742945 H 0.0 **** 0.06
11309 H 14.385654982653172 20.224918478226286 95.32551725903528 H 0.0 **** 0.06
11310 H 12.767944791765142 20.767081411853884 95.8333515251 H 0.0 **** 0.06
11311 C 82.97111448385431 54.912308163384616 114.86774545644019 C 0.0 **** -0.24
11312 H 83.193978258989 55.29691838388545 115.86285865104719 H 0.0 **** 0.06
11313 H 83.42310998750716 55.5622856862234 114.11852662756927 H 0.0 **** 0.06
11314 H 81.89153230880268 54.88388547747663 114.7222737743833 H 0.0 **** 0.06
11315 H 83.37849003737486 53.905856630494654 114.76869458481728 H 0.0 **** 0.06
11316 C 80.0231160948938 70.5621731728165 11.089795885277482 C 0.0 **** -0.24
11317 H 80.56932019513525 70.58772824364311 12.033269599216709 H 0.0 **** 0.06
11318 H 80.650133108499 70.1141646349532 10.319481317225723 H 0.0 **** 0.06
11319 H 79.75683467893273 71.57855452574921 10.79676718070877 H 0.0 **** 0.06
11320 H 79.11608986745904 69.96989288337957 11.21147604880116 H 0.0 **** 0.06
11321 C 23.93013460169385 3.609981559542291 2.4909387467500324 C 0.0 **** -0.24
11322 H 23.312188124119018 3.2152043615585626 1.6848961650147771 H 0.0 **** 0.06
11323 H 24.21317552046537 2.7982517148179795 3.1622189836297707 H 0.0 **** 0.06
11324 H 23.367172737928684 4.360471669459287 3.0466564409815646 H 0.0 **** 0.06
11325 H 24.827527500641168 4.065020491943301 2.072178549742432 H 0.0 **** 0.06
11326 C 74.82892612372098 106.17690991978913 27.786577042717056 C 0.0 **** -0.24
11327 H 74.91500757304925 106.61994803550101 26.794671427184426 H 0.0 **** 0.06
11328 H 75.29034668482456 105.1892557293854 27.78521654646829 H 0.0 **** 0.06
11329 H 73.77525086743489 106.0854506597403 28.05184347035339 H 0.0 **** 0.06
11330 H 75.33294140645202 106.81375228044041 28.51370769420356 H 0.0 **** 0.06
11331 C 3.2958086595634803 25.18135710661872 9.253550985113211 C 0.0 **** -0.24
11332 H 2.4493268989187804 24.858361516458018 9.859351308785548 H 0.0 **** 0.06
11333 H 3.0601886417546353 26.133512597992166 8.777532359127107 H 0.0 **** 0.06
11334 H 3.500568578461248 24.433115812777686 8.488821736821112 H 0.0 **** 0.06
11335 H 4.173104577426672 25.300004130248084 9.889843649115942 H 0.0 **** 0.06
11336 C 117.97418903346573 27.388824711288834 72.38044588726703 C 0.0 **** -0.24
11337 H 118.92802371911336 27.86487405425376 72.60390031762165 H 0.0 **** 0.06
11338 H 117.75939113440623 26.633994106985114 73.13714676216819 H 0.0 **** 0.06
11339 H 118.02503016828962 26.91542173869024 71.3996505946105 H 0.0 **** 0.06
11340 H 117.1839722441664 28.140072014051043 72.38117182282559 H 0.0 **** 0.06
11341 C 79.06648072599211 36.46382094754018 50.157510234518156 C 0.0 **** -0.24
11342 H 79.08181040878571 37.283939082491685 50.87583248569132 H 0.0 **** 0.06
11343 H 79.48358945885855 36.803314059062316 49.209275918602884 H 0.0 **** 0.06
11344 H 78.03854073122727 36.134292449073165 50.006603308218075 H 0.0 **** 0.06
11345 H 79.66058736499053 35.63444011238169 50.54125533297412 H 0.0 **** 0.06
11346 C 91.50262937254482 27.09320561742004 25.229684671818482 C 0.0 **** -0.24
11347 H 91.13005243061605 26.327502515135052 25.91104274549491 H 0.0 **** 0.06
11348 H 92.21382011138692 26.644384234170275 24.534796346065832 H 0.0 **** 0.06
11349 H 91.99726186052061 27.87822905425878 25.800677147700746 H 0.0 **** 0.06
11350 H 90.66876657126042 27.519155922227128 24.672108928724512 H 0.0 **** 0.06
11351 C 6.739069756132157 104.96111435017801 77.76226902219057 C 0.0 **** -0.24
11352 H 5.984520632925149 105.72228497728767 77.56365011438496 H 0.0 **** 0.06
11353 H 6.370229628261024 103.98945569918928 77.43532723243217 H 0.0 **** 0.06
11354 H 6.949283731770738 104.92988300527486 78.83108950476839 H 0.0 **** 0.06
11355 H 7.6522332843081635 105.20566085873625 77.21892199525018 H 0.0 **** 0.06
11356 C 22.81776188536064 30.35423854623528 57.29744027359095 C 0.0 **** -0.24
11357 H 23.54690545691806 30.36293215832572 58.10846969593473 H 0.0 **** 0.06
11358 H 21.814853097896545 30.46913753251718 57.71006580067234 H 0.0 **** 0.06
11359 H 22.884002453596416 29.40812916936514 56.75994811433094 H 0.0 **** 0.06
11360 H 23.02702935806925 31.17647099660374 56.612975149397585 H 0.0 **** 0.06
11361 C 30.3876784931972 37.613528168327946 109.92984387945666 C 0.0 **** -0.24
11362 H 29.315850823070377 37.733280191639835 110.08840768084073 H 0.0 **** 0.06
11363 H 30.564446755808035 37.22725684086362 108.92598780578436 H 0.0 **** 0.06
11364 H 30.787593111409535 36.91407235660995 110.66435968517058 H 0.0 **** 0.06
11365 H 30.88075147683628 38.57873738403708 110.0409686433496 H 0.0 **** 0.06
11366 C 13.350860528753145 44.376395091548105 111.29063776269828 C 0.0 **** -0.24
11367 H 12.60394793023616 44.481700358037045 110.50433064068474 H 0.0 **** 0.06
11368 H 12.862892824364337 44.07552548853751 112.21751129713783 H 0.0 **** 0.06
11369 H 13.858041577818483 45.330562291608686 111.44030079098201 H 0.0 **** 0.06
11370 H 14.079845883093071 43.619551977970985 111.0009078401257 H 0.0 **** 0.06
11371 C 62.98019446526115 106.09046038348998 105.55209964113962 C 0.0 **** -0.24
11372 H 63.330527085502354 107.12015265078213 105.473356239259 H 0.0 **** 0.06
11373 H 62.72878159072246 105.8706872493996 106.59000712439982 H 0.0 **** 0.06
11374 H 63.76500361446753 105.41327167960773 105.21573436131101 H 0.0 **** 0.06
11375 H 62.095123557380134 105.9595166785862 104.9293839650139 H 0.0 **** 0.06
11376 C 57.43873202847974 4.4680789356794435 15.705225854630449 C 0.0 **** -0.24
11377 H 57.01433968146535 3.485697007406589 15.908194697389263 H 0.0 **** 0.06
11378 H 56.86282469694269 4.957122603551429 14.919291614127655 H 0.0 **** 0.06
11379 H 58.474101369802774 4.357225683712128 15.383237587548589 H 0.0 **** 0.06
11380 H 57.403041540296734 5.073616493931572 16.611853744374685 H 0.0 **** 0.06
11381 C 43.59627806325679 102.93625474019015 4.9685102925645594 C 0.0 **** -0.24
11382 H 43.86132135103131 103.8177583372644 5.551051233745312 H 0.0 **** 0.06
11383 H 43.598546696008526 102.05910048395856 5.61557584803279 H 0.0 **** 0.06
11384 H 44.322923617564385 102.79849986095448 4.167657986807868 H 0.0 **** 0.06
11385 H 42.603433127036936 103.06909848882393 4.5385532609624875 H 0.0 **** 0.06
11386 C 112.66762793235421 26.039525590702794 81.67455345406748 C 0.0 **** -0.24
11387 H 112.37727940816711 27.08937673341049 81.71986247801343 H 0.0 **** 0.06
11388 H 111.85097847493805 25.454626583323147 81.25200481433126 H 0.0 **** 0.06
11389 H 112.89039421343824 25.68109526589359 82.67967756145373 H 0.0 **** 0.06
11390 H 113.55366309404972 25.9351804779279 81.0467688783526 H 0.0 **** 0.06
11391 C 100.51734508379971 69.64722053926792 67.55194613417098 C 0.0 **** -0.24
11392 H 99.68840064904754 69.69305561417303 66.84655704697599 H 0.0 **** 0.06
11393 H 101.02071871603673 70.6137099736255 67.58492728804978 H 0.0 **** 0.06
11394 H 101.22309423836731 68.87994705627756 67.23188337718628 H 0.0 **** 0.06
11395 H 100.13782991744873 69.40157286643728 68.54331941173004 H 0.0 **** 0.06
11396 C 55.11883416838193 118.47907593178388 74.72102284955312 C 0.0 **** -0.24
11397 H 55.28852896019419 117.40710787629837 74.61663522471068 H 0.0 **** 0.06
11398 H 55.79871822799462 119.01969116803184 74.06191857158001 H 0.0 **** 0.06
11399 H 55.30085647273305 118.77652708373182 75.75383952005095 H 0.0 **** 0.06
11400 H 54.08848284695557 118.71089012326934 74.45198217730282 H 0.0 **** 0.06
11401 C 49.687885729807846 72.80066825150143 71.03431882755709 C 0.0 **** -0.24
11402 H 49.4390411233652 72.92634570338797 72.0879226864233 H 0.0 **** 0.06
11403 H 49.42372988607505 73.7062917888708 70.48817390713413 H 0.0 **** 0.06
11404 H 49.13244497261482 71.95600090015941 70.62866736632276 H 0.0 **** 0.06
11405 H 50.75719230413236 72.61447677976719 70.9345252822965 H 0.0 **** 0.06
11406 C 55.56955990433789 95.19333960919113 36.81270984740396 C 0.0 **** -0.24
11407 H 54.81015833911084 95.79339378846893 36.310758804479214 H 0.0 **** 0.06
11408 H 55.458537657941235 94.14957041273041 36.519441240068865 H 0.0 **** 0.06
11409 H 55.449308686706445 95.28374057055652 37.891356111673275 H 0.0 **** 0.06
11410 H 56.56007752267692 95.547520663136 36.525646702648615 H 0.0 **** 0.06
11411 C 61.52649861164747 80.07453315746065 84.91426340387093 C 0.0 **** -0.24
11412 H 61.77906803841228 80.8617212330735 84.20468386599444 H 0.0 **** 0.06
11413 H 60.98803710503981 79.27915153535656 84.39824703411284 H 0.0 **** 0.06
11414 H 60.89861331562781 80.48486569772251 85.70434742286224 H 0.0 **** 0.06
11415 H 62.44090511140257 79.67163041874653 85.3499200521324 H 0.0 **** 0.06
11416 C 16.491935517266796 109.43572590855862 105.37535439805188 C 0.0 **** -0.24
11417 H 16.444558252455806 108.85358830395046 104.45529421187041 H 0.0 **** 0.06
11418 H 16.942864643293277 108.83209413575938 106.16413337819387 H 0.0 **** 0.06
11419 H 15.4855413832844 109.72871534711797 105.67239064994217 H 0.0 **** 0.06
11420 H 17.09629597733445 110.3272701048906 105.2100095740773 H 0.0 **** 0.06
11421 C 112.81964611701815 61.54949466520167 106.91308589462184 C 0.0 **** -0.24
11422 H 113.74423144898734 61.26818992768769 106.40997644366752 H 0.0 **** 0.06
11423 H 112.13622220678454 61.99962644767452 106.19399645031831 H 0.0 **** 0.06
11424 H 113.0407163236545 62.26728010729186 107.70406483727155 H 0.0 **** 0.06
11425 H 112.35808595948109 60.66247157590656 107.3479639003364 H 0.0 **** 0.06
11426 C 61.834259510264864 66.5096094414802 6.890646421664002 C 0.0 **** -0.24
11427 H 62.81806808812181 66.04926056513807 6.801230844514976 H 0.0 **** 0.06
11428 H 61.069610391519355 65.79230691329704 6.592467987492441 H 0.0 **** 0.06
11429 H 61.78317173338947 67.38621946066596 6.245324450086343 H 0.0 **** 0.06
11430 H 61.66649221572643 66.81040336781933 7.925523615006185 H 0.0 **** 0.06
11431 C 34.57339019299477 1.8746156876768225 67.06332339005496 C 0.0 **** -0.24
11432 H 33.79482748510996 2.5533572887750324 66.71494353293039 H 0.0 **** 0.06
11433 H 35.046540849441804 2.290644509936044 67.9535178184884 H 0.0 **** 0.06
11434 H 35.32010986293008 1.746548704469916 66.28003090410559 H 0.0 **** 0.06
11435 H 34.13063167636197 0.9085419898319742 67.30550734641093 H 0.0 **** 0.06
11436 C 36.91636717822146 7.569217917601492 59.61482651076278 C 0.0 **** -0.24
11437 H 37.878748892500624 7.073325096334088 59.735450842202624 H 0.0 **** 0.06
11438 H 36.217636733253016 7.191324359725684 60.36138046669089 H 0.0 **** 0.06
11439 H 36.52594720201702 7.366662168177697 58.617033929579975 H 0.0 **** 0.06
11440 H 37.04239445320576 8.643245725860822 59.74513331216116 H 0.0 **** 0.06
11441 C 82.10243671721426 18.675895481838964 71.5591782642403 C 0.0 **** -0.24
11442 H 82.83334062963178 18.077598321445958 71.01488094875867 H 0.0 **** 0.06
11443 H 82.47951493580479 18.88854705043783 72.5595236528383 H 0.0 **** 0.06
11444 H 81.16517362537445 18.124106150166035 71.63350874386893 H 0.0 **** 0.06
11445 H 81.93114747330293 19.611561193833506 71.02720437182381 H 0.0 **** 0.06
11446 C 28.01101692012861 63.33518796465797 88.68715991933166 C 0.0 **** -0.24
11447 H 28.44558673267099 62.34608814327577 88.54770346147649 H 0.0 **** 0.06
11448 H 28.725357124901706 63.976746161360104 89.20365653425898 H 0.0 **** 0.06
11449 H 27.100955300329844 63.25146604543057 89.28167660619411 H 0.0 **** 0.06
11450 H 27.771854933639247 63.767385822189404 87.71577271786379 H 0.0 **** 0.06
11451 C 28.530873995692218 41.84295058492242 90.34633186320909 C 0.0 **** -0.24
11452 H 27.628365316572825 41.23125124367047 90.32682221412253 H 0.0 **** 0.06
11453 H 28.282158438373244 42.86502890153761 90.05865127042077 H 0.0 **** 0.06
11454 H 29.25950598997173 41.43517589512916 89.64575083119735 H 0.0 **** 0.06
11455 H 28.951116224203133 41.83915413345969 91.35164205245724 H 0.0 **** 0.06
11456 C 79.67572287390755 107.93212919183094 115.15198050185239 C 0.0 **** -0.24
11457 H 79.18906424042132 108.00044870614516 114.17883127778697 H 0.0 **** 0.06
11458 H 80.6860059329984 108.33612500380607 115.08207962370048 H 0.0 **** 0.06
11459 H 79.72227041115897 106.88830806935465 115.46250644824127 H 0.0 **** 0.06
11460 H 79.1044315987485 108.50403663036258 115.88373919016863 H 0.0 **** 0.06
11461 C 42.995610510080155 107.54323708706227 49.09007945607624 C 0.0 **** -0.24
11462 H 42.56259304030607 106.7377314809861 48.497590539090595 H 0.0 **** 0.06
11463 H 42.20393055130205 108.21364959711525 49.425629034396536 H 0.0 **** 0.06
11464 H 43.70885331735883 108.09974478138798 48.48213994623342 H 0.0 **** 0.06
11465 H 43.50681455549005 107.12249474278565 49.95653483937167 H 0.0 **** 0.06
11466 C 86.86671374095718 47.077989567746066 63.04373043424022 C 0.0 **** -0.24
11467 H 85.84039739658022 46.71181259885771 63.06489038838839 H 0.0 **** 0.06
11468 H 87.1736942526993 47.359238176584995 64.05141927213396 H 0.0 **** 0.06
11469 H 86.92929086925301 47.94766894976379 62.3887323321689 H 0.0 **** 0.06
11470 H 87.5242998993941 46.292869423258445 62.66879384123564 H 0.0 **** 0.06
11471 C 38.57930115775765 85.33965060046495 70.68187589163921 C 0.0 **** -0.24
11472 H 38.043041916809955 84.58978385495485 71.26388318473656 H 0.0 **** 0.06
11473 H 38.71805092184786 84.97790303929165 69.66295941520497 H 0.0 **** 0.06
11474 H 39.55200629292514 85.52486569342881 71.13861182748718 H 0.0 **** 0.06
11475 H 38.00482651287577 86.26549495818446 70.66383029288019 H 0.0 **** 0.06
11476 C 55.25086052161313 67.91450510709859 23.008720724335205 C 0.0 **** -0.24
11477 H 55.171521809008816 68.89062614661509 23.48683329524988 H 0.0 **** 0.06
11478 H 54.87755335212703 67.14696190798469 23.687845791596033 H 0.0 **** 0.06
11479 H 56.293747056682996 67.71175664927364 22.767160697393592 H 0.0 **** 0.06
11480 H 54.657665279499064 67.90983186351315 22.094009751513056 H 0.0 **** 0.06
11481 C 112.50673461980924 114.89217572440158 51.76365349568265 C 0.0 **** -0.24
11482 H 111.54208901906195 114.45415195816672 51.50636835498891 H 0.0 **** 0.06
11483 H 113.21931374115135 114.69657040401611 50.961953949870235 H 0.0 **** 0.06
11484 H 112.87091686290094 114.44873896642638 52.689996122441215 H 0.0 **** 0.06
11485 H 112.39377998206521 115.96830445938032 51.89564884606797 H 0.0 **** 0.06
11486 C 34.87813307337689 0.3219261269927731 22.29796220041269 C 0.0 **** -0.24
11487 H 34.52287560262519 -0.5961865586771804 22.76369245983706 H 0.0 **** 0.06
11488 H 35.95844594810032 0.26522858458083753 22.159831375209066 H 0.0 **** 0.06
11489 H 34.63755845179725 1.1708334767647504 22.938198680880426 H 0.0 **** 0.06
11490 H 34.39472469428958 0.44832753089493416 21.328860742733657 H 0.0 **** 0.06
11491 C 30.989894822780343 100.38755349874015 113.42488375197473 C 0.0 **** -0.24
11492 H 31.133151135771755 101.45228712123276 113.60965529717689 H 0.0 **** 0.06
11493 H 31.228881891933952 99.82642496671934 114.32915617410842 H 0.0 **** 0.06
11494 H 31.646598878016675 100.06755257523986 112.61500546014469 H 0.0 **** 0.06
11495 H 29.95231657746092 100.20371988201259 113.14544829317956 H 0.0 **** 0.06
11496 C 45.43342203161552 62.920136347292186 81.51036779026839 C 0.0 **** -0.24
11497 H 46.35959739387681 62.436434018386194 81.1994259224958 H 0.0 **** 0.06
11498 H 45.6580302241331 63.90578871320352 81.91855790593723 H 0.0 **** 0.06
11499 H 44.94613732970063 62.312936182778856 82.27355923271705 H 0.0 **** 0.06
11500 H 44.77200580051071 63.02332090894134 80.6505579025245 H 0.0 **** 0.06
11501 C 16.966716542546457 38.851021581674786 82.24004179994006 C 0.0 **** -0.24
11502 H 16.057222201436947 38.47459744515402 82.70907860780875 H 0.0 **** 0.06
11503 H 16.702154983423462 39.50877758614314 81.41167362586503 H 0.0 **** 0.06
11504 H 17.55530120707912 38.0133950498481 81.8656243016186 H 0.0 **** 0.06
11505 H 17.549911882408903 39.406648517432984 82.97317846462812 H 0.0 **** 0.06
11506 C 59.53455763116199 32.39801165358468 100.13121063440877 C 0.0 **** -0.24
11507 H 60.324999422920996 32.061773195362015 99.45990216126546 H 0.0 **** 0.06
11508 H 59.97839890827487 32.80843384911655 101.03806072937647 H 0.0 **** 0.06
11509 H 58.89434759701339 31.55398210350932 100.39016404875144 H 0.0 **** 0.06
11510 H 58.94074818480772 33.16621067665981 99.63624785839903 H 0.0 **** 0.06
11511 C 45.85699116208045 65.44858758139011 3.2945463648554956 C 0.0 **** -0.24
11512 H 44.76802388606342 65.47838730498339 3.3248414352772926 H 0.0 **** 0.06
11513 H 46.21243009664755 64.5890102104629 3.8621099574813815 H 0.0 **** 0.06
11514 H 46.257710843553554 66.36361110447254 3.7293361843182193 H 0.0 **** 0.06
11515 H 46.18805172029741 65.36317191975448 2.2589119125372203 H 0.0 **** 0.06
11516 C 42.39170561620688 110.31558621504156 77.522088065291 C 0.0 **** -0.24
11517 H 43.137744371100894 111.01687430489994 77.14567887940098 H 0.0 **** 0.06
11518 H 42.41779083975905 109.40394412946304 76.92546606075138 H 0.0 **** 0.06
11519 H 41.40180802317059 110.76769334917189 77.45349129743948 H 0.0 **** 0.06
11520 H 42.610564229076886 110.07669302009727 78.56291347283326 H 0.0 **** 0.06
11521 C 100.55453880080401 1.46007406829591 24.125255431270887 C 0.0 **** -0.24
11522 H 100.27999216419099 2.5014206259400993 24.29370145634664 H 0.0 **** 0.06
11523 H 101.5375874345678 1.2701799772288922 24.55664065648648 H 0.0 **** 0.06
11524 H 100.58298927774595 1.2593218497872982 23.054344754304964 H 0.0 **** 0.06
11525 H 99.81806677245126 0.8098363652198657 24.597933419703395 H 0.0 **** 0.06
11526 C 93.93361170166946 64.68254692448969 32.88824699389954 C 0.0 **** -0.24
11527 H 94.20359845787951 65.73819483735016 32.94026925250009 H 0.0 **** 0.06
11528 H 94.77533716652744 64.11165432872605 32.49640844723854 H 0.0 **** 0.06
11529 H 93.07327251470724 64.56114645531622 32.22945641492771 H 0.0 **** 0.06
11530 H 93.68213173808726 64.32256878219414 33.8855940250495 H 0.0 **** 0.06
11531 C 68.57063041557768 94.74142278241092 66.97502004017207 C 0.0 **** -0.24
11532 H 68.82682331670117 94.51908735734392 65.93854823739281 H 0.0 **** 0.06
11533 H 67.69182294611153 94.16368984094379 67.26263556488652 H 0.0 **** 0.06
11534 H 68.35552701586369 95.80558898935183 67.07502212412811 H 0.0 **** 0.06
11535 H 69.407949464431 94.47644694328832 67.62025887793044 H 0.0 **** 0.06
11536 C 68.42634804299595 91.54724065677331 82.22853148698371 C 0.0 **** -0.24
11537 H 68.48279963815355 92.28096187788901 83.03264090594621 H 0.0 **** 0.06
11538 H 67.41475690387833 91.53147918413711 81.82101387725646 H 0.0 **** 0.06
11539 H 68.67602601397957 90.56063540910378 82.61841037042777 H 0.0 **** 0.06
11540 H 69.13137996005267 91.81554704153905 81.44122386195542 H 0.0 **** 0.06
11541 C 93.33018764762099 71.54543817436087 62.53313752560086 C 0.0 **** -0.24
11542 H 92.31215408649885 71.82578861464734 62.80652729062731 H 0.0 **** 0.06
11543 H 93.96098180316662 72.43552336050979 62.52448949739003 H 0.0 **** 0.06
11544 H 93.32804040920558 71.0907323575197 61.542726725113646 H 0.0 **** 0.06
11545 H 93.71766404033738 70.83252972733419 63.2599862564221 H 0.0 **** 0.06
11546 C 47.68296232690895 16.91664755139532 27.51090101112544 C 0.0 **** -0.24
11547 H 47.34777194163996 17.54155594030342 28.339201397234916 H 0.0 **** 0.06
11548 H 48.270979164906635 17.51902130944943 26.81719377802844 H 0.0 **** 0.06
11549 H 46.81624684005661 16.506968308360797 26.991968679461735 H 0.0 **** 0.06
11550 H 48.296391839786736 16.10199859082791 27.894988027378616 H 0.0 **** 0.06
11551 C 42.94923866328051 85.70389351123521 67.64701644272765 C 0.0 **** -0.24
11552 H 43.21734260878439 86.35085586352835 68.48274283562807 H 0.0 **** 0.06
11553 H 42.210133390454246 86.20642896580958 67.0219331151452 H 0.0 **** 0.06
11554 H 42.530012677450195 84.77243517154005 68.02770728114461 H 0.0 **** 0.06
11555 H 43.83852477482076 85.48754685774679 67.05518378495648 H 0.0 **** 0.06
11556 C 32.851368707674894 41.87640177202559 88.88793293188417 C 0.0 **** -0.24
11557 H 33.921984780556016 41.85695842818268 88.68683174394317 H 0.0 **** 0.06
11558 H 32.66481926607557 41.518259243775134 89.8999451619269 H 0.0 **** 0.06
11559 H 32.3362828583829 41.23331846325286 88.17386778536027 H 0.0 **** 0.06
11560 H 32.48202774384822 42.897774028439756 88.78876835021975 H 0.0 **** 0.06
11561 C 3.11691553141047 95.72985227907134 116.0846929824674 C 0.0 **** -0.24
11562 H 4.14223055029278 95.3733051427017 115.9820680868644 H 0.0 **** 0.06
11563 H 2.6324390659921733 95.20826502280195 116.91159382310848 H 0.0 **** 0.06
11564 H 2.570728917884651 95.53563548123148 115.162210178206 H 0.0 **** 0.06
11565 H 3.1236597688966157 96.80162584759589 116.28529097321022 H 0.0 **** 0.06
11566 C 109.16628196122355 105.20585059131415 59.4050669990252 C 0.0 **** -0.24
11567 H 109.73310631623823 104.41738124541874 59.900224361304375 H 0.0 **** 0.06
11568 H 108.10702031414306 104.94928792010307 59.41169393958136 H 0.0 **** 0.06
11569 H 109.50956650834101 105.30910516133747 58.37656533231969 H 0.0 **** 0.06
11570 H 109.31518439628019 106.14667266138551 59.934617228361425 H 0.0 **** 0.06
11571 C 118.80514644287278 8.593060162029929 62.86643349508848 C 0.0 **** -0.24
11572 H 118.98654523061134 9.55092942010873 63.35492872407435 H 0.0 **** 0.06
11573 H 119.75841284725479 8.137112614501007 62.59616389625106 H 0.0 **** 0.06
11574 H 118.21003623067689 8.752235478670002 61.96675429073341 H 0.0 **** 0.06
11575 H 118.26677285209719 7.933506845271381 63.54678182245686 H 0.0 **** 0.06
11576 C 97.60832878463418 54.87936587778586 101.90276379642023 C 0.0 **** -0.24
11577 H 97.68046483210134 55.83211468090451 102.42889759550917 H 0.0 **** 0.06
11578 H 96.66198644848177 54.83265480856551 101.36493318746938 H 0.0 **** 0.06
11579 H 97.65970799803407 54.06274587750511 102.62312102692363 H 0.0 **** 0.06
11580 H 98.43384308843659 54.792589076567424 101.19577827113443 H 0.0 **** 0.06
11581 C 27.906606905302922 35.178075881579446 107.68926623631299 C 0.0 **** -0.24
11582 H 27.50159287768153 36.182672312293676 107.56356311930233 H 0.0 **** 0.06
11583 H 27.087100733442654 34.4705465344787 107.82274109470094 H 0.0 **** 0.06
11584 H 28.55363561716873 35.154090099662824 108.56676618696457 H 0.0 **** 0.06
11585 H 28.483323019412573 34.905374620507416 106.80511458096473 H 0.0 **** 0.06
11586 C 98.97605967394986 33.800020638508755 73.01436932385946 C 0.0 **** -0.24
11587 H 98.3813743599745 34.70679091532091 73.12143737413749 H 0.0 **** 0.06
11588 H 100.01519162036269 34.01549389297554 73.26359945378022 H 0.0 **** 0.06
11589 H 98.91379143523554 33.444595081915395 71.98590352459286 H 0.0 **** 0.06
11590 H 98.59289434525411 33.03311452307571 73.68754605525271 H 0.0 **** 0.06
11591 C 43.70998376201214 24.45053882911388 114.38669785008256 C 0.0 **** -0.24
11592 H 44.60313092453546 24.02988073129285 114.8486918761275 H 0.0 **** 0.06
11593 H 43.868917949869314 25.51177058865749 114.1898380774704 H 0.0 **** 0.06
11594 H 42.86203680703923 24.328976218427556 115.05982338921538 H 0.0 **** 0.06
11595 H 43.50816388323284 23.93325193037726 113.44973068940877 H 0.0 **** 0.06
11596 C 29.626239282886388 96.01545094918941 53.96558950478354 C 0.0 **** -0.24
11597 H 29.318751004717967 95.02893588813325 53.61895201178453 H 0.0 **** 0.06
11598 H 30.11950487329601 95.92313312244434 54.93317879940676 H 0.0 **** 0.06
11599 H 28.749832678215142 96.65558815427258 54.06325910216805 H 0.0 **** 0.06
11600 H 30.3168209675014 96.45352793641061 53.2450667421557 H 0.0 **** 0.06
11601 C 100.79774380486398 11.886314802239095 102.30203944602923 C 0.0 **** -0.24
11602 H 100.51737337642552 11.97590929139977 101.25284748041216 H 0.0 **** 0.06
11603 H 101.84308065890477 11.585514678544989 102.3747150208643 H 0.0 **** 0.06
11604 H 100.1690458854813 11.135927327942177 102.78318104215953 H 0.0 **** 0.06
11605 H 100.66070820371567 12.846860371968507 102.79797490485774 H 0.0 **** 0.06
11606 C 58.72932722135624 70.0154080766952 104.74951187540606 C 0.0 **** -0.24
11607 H 57.86146436129144 69.52805529231932 105.19413745471331 H 0.0 **** 0.06
11608 H 59.07864917680146 70.80891227975414 105.41052613423986 H 0.0 **** 0.06
11609 H 58.453751242547895 70.44005972779661 103.7841417750439 H 0.0 **** 0.06
11610 H 59.52415406032665 69.28291025505396 104.61086205448365 H 0.0 **** 0.06
11611 C 114.62247659078635 10.679238061865988 72.73741077819969 C 0.0 **** -0.24
11612 H 113.83675938315689 9.978610796369253 72.45707455414734 H 0.0 **** 0.06
11613 H 114.30996522683795 11.694317977139292 72.48977989048592 H 0.0 **** 0.06
11614 H 115.53539360402446 10.437380752790887 72.19302291274644 H 0.0 **** 0.06
11615 H 114.80842693636951 10.60715071179169 73.80861076039841 H 0.0 **** 0.06
11616 C 84.65499372963515 16.004622659242443 63.613814942940024 C 0.0 **** -0.24
11617 H 84.90999815164199 16.458431317175126 64.57106045392644 H 0.0 **** 0.06
11618 H 85.50584114133855 15.429680780821286 63.24655868054725 H 0.0 **** 0.06
11619 H 84.40679278302156 16.786451412009 62.89528399593041 H 0.0 **** 0.06
11620 H 83.79729166322778 15.343171330522807 63.74079897383919 H 0.0 **** 0.06
11621 C 118.4282320103283 66.04249466274533 113.61254932691159 C 0.0 **** -0.24
11622 H 117.90665714494938 66.61021510613759 114.38290295283608 H 0.0 **** 0.06
11623 H 117.7425571416561 65.82528925028186 112.79321643751423 H 0.0 **** 0.06
11624 H 118.79571327978609 65.10857264469217 114.03707578463201 H 0.0 **** 0.06
11625 H 119.26879620635047 66.62651595433215 113.23799689828328 H 0.0 **** 0.06
11626 C 62.078858212877215 91.08010582498537 25.441135967794146 C 0.0 **** -0.24
11627 H 61.0237091756505 91.03827270222916 25.71497932462122 H 0.0 **** 0.06
11628 H 62.66431350185305 91.40138791440131 26.302378947696653 H 0.0 **** 0.06
11629 H 62.21278048051064 91.78915369628334 24.624002852241276 H 0.0 **** 0.06
11630 H 62.41034741896964 90.09199815296813 25.122467353459776 H 0.0 **** 0.06
11631 C 38.615939989966876 80.8985934900654 116.33015850134215 C 0.0 **** -0.24
11632 H 37.57890361948222 80.7927998926724 116.64985350215392 H 0.0 **** 0.06
11633 H 38.667954728857495 81.59173751700507 115.4902022953829 H 0.0 **** 0.06
11634 H 39.00182936344132 79.92571040123863 116.0229199035341 H 0.0 **** 0.06
11635 H 39.21372198076517 81.28211156389708 117.15620273152432 H 0.0 **** 0.06
11636 C 76.91023441085375 90.31947019303334 16.24881151034252 C 0.0 **** -0.24
11637 H 77.20911189028647 90.70299410149062 15.273213109624947 H 0.0 **** 0.06
11638 H 76.10336602753065 89.5972429597997 16.123728273890322 H 0.0 **** 0.06
11639 H 76.56632243408504 91.14365388596684 16.87416292513454 H 0.0 **** 0.06
11640 H 77.76213729151283 89.83398982487608 16.724141732720526 H 0.0 **** 0.06
11641 C 104.57045733637403 32.780914470889286 6.572312858443581 C 0.0 **** -0.24
11642 H 105.06443347428481 31.839805784349757 6.3304108305865725 H 0.0 **** 0.06
11643 H 104.85340717344982 33.091080008036556 7.577968500026685 H 0.0 **** 0.06
11644 H 103.4894033399271 32.64527374843035 6.524276461639573 H 0.0 **** 0.06
11645 H 104.87368535878477 33.544316587987794 5.856854644504125 H 0.0 **** 0.06
11646 C 75.3799070789292 68.40478504589038 99.56032746046063 C 0.0 **** -0.24
11647 H 75.87540211086758 67.80027056877242 100.31943907074228 H 0.0 **** 0.06
11648 H 75.38039194760563 69.44917844257941 99.87021403661342 H 0.0 **** 0.06
11649 H 74.3518973741937 68.0616469176365 99.438981221745 H 0.0 **** 0.06
11650 H 75.90984107050377 68.30530878226665 98.61302972133939 H 0.0 **** 0.06
11651 C 54.84688744607407 90.24308686034493 116.53538108743084 C 0.0 **** -0.24
11652 H 55.51161248632915 89.97439849814165 115.71462793948697 H 0.0 **** 0.06
11653 H 55.290425949036596 91.05713851879023 117.10956844471593 H 0.0 **** 0.06
11654 H 54.70158032908703 89.37892933756629 117.18363812580523 H 0.0 **** 0.06
11655 H 53.88509619456218 90.56207625433561 116.13446726794784 H 0.0 **** 0.06
11656 C 25.136702015479727 115.59485247184999 98.73743553336467 C 0.0 **** -0.24
11657 H 25.38982644032754 116.06932902006425 99.68568055209374 H 0.0 **** 0.06
11658 H 24.237030789232193 116.05634005049478 98.33029984252636 H 0.0 **** 0.06
11659 H 24.95921563358067 114.53157819701694 98.89934902793951 H 0.0 **** 0.06
11660 H 25.961720905167198 115.72344624313072 98.03625147283955 H 0.0 **** 0.06
11661 C 96.57299167148909 102.89778805437084 24.219541084758873 C 0.0 **** -0.24
11662 H 95.91245512072837 102.3332787002555 23.56034816448627 H 0.0 **** 0.06
11663 H 97.08101648428317 103.67312764231491 23.646717517558443 H 0.0 **** 0.06
11664 H 97.31067408208722 102.22528732101404 24.65658450952651 H 0.0 **** 0.06
11665 H 95.98489178788691 103.35838605235165 25.013387156932424 H 0.0 **** 0.06
11666 C 59.28698586475223 67.52421483346174 53.45162428882276 C 0.0 **** -0.24
11667 H 60.13755533378326 67.95148995882886 53.98287387607854 H 0.0 **** 0.06
11668 H 58.98344322987088 66.5969256646502 53.93850753090982 H 0.0 **** 0.06
11669 H 59.57071941059977 67.31750852011203 52.419846053730566 H 0.0 **** 0.06
11670 H 58.45733445145509 68.23055795917617 53.466062163301444 H 0.0 **** 0.06
11671 C 46.8252066823041 65.40450507660853 100.29610272958254 C 0.0 **** -0.24
11672 H 46.468782671335475 64.3945521572368 100.09557207185918 H 0.0 **** 0.06
11673 H 46.06044766695834 66.12464392284963 100.00015943816109 H 0.0 **** 0.06
11674 H 47.73659430363503 65.58767054020845 99.72692912883363 H 0.0 **** 0.06
11675 H 47.03307938726445 65.51183491965676 101.36083407081688 H 0.0 **** 0.06
11676 C 7.386398707634509 18.15777311482907 107.96626316027118 C 0.0 **** -0.24
11677 H 8.402403845924436 18.260845929102942 108.34824897702802 H 0.0 **** 0.06
11678 H 7.217822062144904 17.1263812766459 107.65540080791129 H 0.0 **** 0.06
11679 H 7.249653109313716 18.821687482130784 107.11222746562592 H 0.0 **** 0.06
11680 H 6.675715813154731 18.422177771436623 108.74917539051961 H 0.0 **** 0.06
11681 C 51.97152998313527 46.24147934671592 23.958425023793154 C 0.0 **** -0.24
11682 H 52.90559652954195 46.7013153821087 24.284138377623833 H 0.0 **** 0.06
11683 H 51.991236104931716 45.17624311370983 24.19084719664238 H 0.0 **** 0.06
11684 H 51.85575444803976 46.37749079853944 22.882828667749948 H 0.0 **** 0.06
11685 H 51.13600462113101 46.71224086475158 24.475806402295746 H 0.0 **** 0.06
11686 C 112.3070751341996 33.13585047240295 101.42849605081653 C 0.0 **** -0.24
11687 H 111.9745499604426 33.84928268315889 102.18188639004819 H 0.0 **** 0.06
11688 H 111.45960843743387 32.837907747402966 100.81012563362248 H 0.0 **** 0.06
11689 H 112.72507824104595 32.256487477023114 101.9206675852763 H 0.0 **** 0.06
11690 H 113.07025549023774 33.59861448598784 100.8028373757692 H 0.0 **** 0.06
11691 C 25.520886733673677 106.5214336978776 102.88393027845538 C 0.0 **** -0.24
11692 H 26.275950400393697 107.19578348422775 102.47742085405011 H 0.0 **** 0.06
11693 H 24.554994969501394 107.02605364959066 102.89884189695147 H 0.0 **** 0.06
11694 H 25.799183986444632 106.23543707405773 103.89832869524378 H 0.0 **** 0.06
11695 H 25.456669808326183 105.63044177254389 102.25954888099704 H 0.0 **** 0.06
11696 C 81.2841827427007 76.96053514895308 33.52796712609663 C 0.0 **** -0.24
11697 H 81.73868011054651 76.58506006659422 34.44555213953521 H 0.0 **** 0.06
11698 H 81.22017317929635 78.04849049663099 33.57384314078996 H 0.0 **** 0.06
11699 H 80.2845529673188 76.5408056559769 33.41958363991748 H 0.0 **** 0.06
11700 H 81.89598737314094 76.66884050995998 32.67422951411089 H 0.0 **** 0.06
11701 C 37.03449410455565 72.27185112153913 5.8198580743707 C 0.0 **** -0.24
11702 H 37.264166006928086 72.03436615490415 6.857797466295665 H 0.0 **** 0.06
11703 H 36.118455559807444 71.7584918145123 5.523784931869955 H 0.0 **** 0.06
11704 H 37.85581506657426 71.94488570623136 5.182003014583302 H 0.0 **** 0.06
11705 H 36.89800399025247 73.34792406280343 5.714226541981645 H 0.0 **** 0.06
11706 C 24.246698251079152 53.97884320321137 71.52968926644547 C 0.0 **** -0.24
11707 H 24.899918605778282 54.800144950469075 71.8230783102228 H 0.0 **** 0.06
11708 H 24.254587520926208 53.87780978833396 70.44430887667696 H 0.0 **** 0.06
11709 H 23.230580960291064 54.18434629912255 71.8681043449898 H 0.0 **** 0.06
11710 H 24.60048933703959 53.05408865080295 71.98396272219699 H 0.0 **** 0.06
11711 C 53.69743296708282 92.59633138754995 111.46890060451841 C 0.0 **** -0.24
11712 H 53.13204952582521 92.73326898572208 110.54623851998133 H 0.0 **** 0.06
11713 H 53.29508261074989 93.25229576839519 112.24155030077287 H 0.0 **** 0.06
11714 H 54.74470635856022 92.84067906467331 111.29223085097235 H 0.0 **** 0.06
11715 H 53.6154882763754 91.55834442677349 111.79394799309873 H 0.0 **** 0.06
11716 C 108.2921461553272 93.07839913647351 118.76748882429789 C 0.0 **** -0.24
11717 H 107.68343983631686 92.65545488314504 117.967851789587 H 0.0 **** 0.06
11718 H 108.87053803141674 93.91686824867031 118.37774655732119 H 0.0 **** 0.06
11719 H 108.96940097600213 92.31482981993224 119.14961230454315 H 0.0 **** 0.06
11720 H 107.6437924691538 93.42577037701108 119.57199693331316 H 0.0 **** 0.06
11721 C 10.686785711599025 43.18599684338096 97.7404727904198 C 0.0 **** -0.24
11722 H 10.105524867722895 44.108048503116834 97.73658244270757 H 0.0 **** 0.06
11723 H 10.552128163241527 42.66719599098309 96.79073353195216 H 0.0 **** 0.06
11724 H 10.348968517211848 42.54622602085459 98.55515269696514 H 0.0 **** 0.06
11725 H 11.742649313770563 43.42351160932827 97.87872795993044 H 0.0 **** 0.06
11726 C 11.732349420301787 111.7365303824625 19.463018272718216 C 0.0 **** -0.24
11727 H 11.959370672583237 112.11521622075344 18.465974135817305 H 0.0 **** 0.06
11728 H 12.175167889741925 112.39657361116754 20.210814016858876 H 0.0 **** 0.06
11729 H 12.144136872608915 110.7337801199085 19.573659713363213 H 0.0 **** 0.06
11730 H 10.652273113490466 111.70394430215013 19.60191686445961 H 0.0 **** 0.06
11731 C 83.13069510505395 103.04513799522127 24.705002075903963 C 0.0 **** -0.24
11732 H 83.80225446786855 103.4952347400901 23.974180971340786 H 0.0 **** 0.06
11733 H 82.152233778788 102.88946121954311 24.251142279342446 H 0.0 **** 0.06
11734 H 83.0316570382328 103.70859573255407 25.564285426122353 H 0.0 **** 0.06
11735 H 83.53722057233986 102.08723133978555 25.031209863826348 H 0.0 **** 0.06
11736 C 56.33730047364722 111.93400478729899 11.816682121106908 C 0.0 **** -0.24
11737 H 56.64568182276821 111.10965914125552 11.172839103282655 H 0.0 **** 0.06
11738 H 57.08885054663372 112.72290843532434 11.780472800880943 H 0.0 **** 0.06
11739 H 56.23408330256896 111.57529304829342 12.840822091167752 H 0.0 **** 0.06
11740 H 55.38071820598165 112.32569925686033 11.470610762924622 H 0.0 **** 0.06
11741 C 52.523620850028045 10.44857926449751 3.765881066436066 C 0.0 **** -0.24
11742 H 53.40427428178149 10.904555250188565 4.218179639388836 H 0.0 **** 0.06
11743 H 51.7333090497323 11.19514794840083 3.676829776251907 H 0.0 **** 0.06
11744 H 52.17761774595249 9.62687379726485 4.393799540887244 H 0.0 **** 0.06
11745 H 52.77833897964726 10.068885446701728 2.7766642960130525 H 0.0 **** 0.06
11746 C 38.99835964792035 103.24957749258124 16.535149329543728 C 0.0 **** -0.24
11747 H 39.70960761825441 103.42096202862481 17.34311481885517 H 0.0 **** 0.06
11748 H 38.094548583893896 102.79397454189552 16.938069922769103 H 0.0 **** 0.06
11749 H 39.44268308102099 102.58377505433589 15.795414675244928 H 0.0 **** 0.06
11750 H 38.747553062449356 104.19953958000067 16.063703013859964 H 0.0 **** 0.06
11751 C 30.192058200741997 77.28273209986935 10.119629807141393 C 0.0 **** -0.24
11752 H 30.008457055924737 76.50878058668053 10.865061400411491 H 0.0 **** 0.06
11753 H 30.69544082662827 78.12696665285449 10.590082230462514 H 0.0 **** 0.06
11754 H 29.24178095360014 77.61338927170152 9.699110340730869 H 0.0 **** 0.06
11755 H 30.820600449830806 76.88062503005062 9.325945340834863 H 0.0 **** 0.06
11756 C 3.616034336999917 105.2300396566705 97.8906444587301 C 0.0 **** -0.24
11757 H 3.2144863839112787 105.99403302056982 98.5564341825717 H 0.0 **** 0.06
11758 H 3.818386294840863 104.32199373715679 98.4592532028081 H 0.0 **** 0.06
11759 H 4.541240420179534 105.59052999719813 97.44068889889547 H 0.0 **** 0.06
11760 H 2.8908544953582833 105.01413661051294 97.10635904388096 H 0.0 **** 0.06
11761 C 65.20975572539501 72.8306797364796 108.47446540656406 C 0.0 **** -0.24
11762 H 65.491059963591 73.00954268693317 107.43667036798473 H 0.0 **** 0.06
11763 H 65.64743985066127 73.60145480078211 109.10829261862065 H 0.0 **** 0.06
11764 H 65.57536815330934 71.85167475016706 108.785631613021 H 0.0 **** 0.06
11765 H 64.12384730231182 72.85905854144335 108.56574586953803 H 0.0 **** 0.06
11766 C 46.78116436295386 11.327256914455404 12.856954800511772 C 0.0 **** -0.24
11767 H 46.340638966309285 12.21150092428843 13.317520184947313 H 0.0 **** 0.06
11768 H 46.53479663610773 11.3097036794222 11.79562433510037 H 0.0 **** 0.06
11769 H 46.38536817176387 10.432638716587377 13.33711539030162 H 0.0 **** 0.06
11770 H 47.86458442339347 11.355592498940581 12.978699261877154 H 0.0 **** 0.06
11771 C 76.25165273885929 19.226863509011736 18.439298467325614 C 0.0 **** -0.24
11772 H 76.08895807991829 19.33702164461772 17.367411267205114 H 0.0 **** 0.06
11773 H 77.01793741941998 19.93045546180923 18.764716234457012 H 0.0 **** 0.06
11774 H 76.57662939631899 18.20951379291131 18.65428735540874 H 0.0 **** 0.06
11775 H 75.32149231420149 19.431610477362966 18.96970949026081 H 0.0 **** 0.06
11776 C 66.59900622024665 92.42531449802289 47.155811223815306 C 0.0 **** -0.24
11777 H 66.91414364459794 91.58133344387477 46.54270036992369 H 0.0 **** 0.06
11778 H 65.6111847174189 92.22347037654231 47.57075126024341 H 0.0 **** 0.06
11779 H 66.55941857434544 93.32593214134465 46.54301088604433 H 0.0 **** 0.06
11780 H 67.31178678738772 92.57006981035181 47.96802201337101 H 0.0 **** 0.06
11781 C 115.17682035293502 55.79850915469833 89.34447080630508 C 0.0 **** -0.24
11782 H 116.0335751712709 56.42903837536223 89.11055939692352 H 0.0 **** 0.06
11783 H 114.78891333464433 56.06191185843277 90.32895939777728 H 0.0 **** 0.06
11784 H 115.48384158005832 54.752959283336445 89.34248006441118 H 0.0 **** 0.06
11785 H 114.39939468840991 55.94981958037628 88.5951897536454 H 0.0 **** 0.06
11786 C 79.1473944249052 97.46600823048126 90.92515690314175 C 0.0 **** -0.24
11787 H 80.09564862832394 97.29202875550357 90.4169289458209 H 0.0 **** 0.06
11788 H 79.00499660019057 96.70806856157498 91.6959817437803 H 0.0 **** 0.06
11789 H 78.33231385230681 97.40919635181862 90.20452900418448 H 0.0 **** 0.06
11790 H 79.15771395676512 98.4542239621332 91.38531748713777 H 0.0 **** 0.06
11791 C 83.60706580717306 40.78584376170295 83.66748790251097 C 0.0 **** -0.24
11792 H 83.3164757140718 41.10447759524391 82.66621297938588 H 0.0 **** 0.06
11793 H 84.21340125042934 41.5625327256422 84.1333753816622 H 0.0 **** 0.06
11794 H 84.1838181251598 39.8630613402745 83.60173869320175 H 0.0 **** 0.06
11795 H 82.71315568748892 40.61249017736492 84.2674652856972 H 0.0 **** 0.06
11796 C 51.90830197646835 85.99808755971264 0.6458688631704774 C 0.0 **** -0.24
11797 H 51.22476257502424 85.29734462170666 0.16542339402088047 H 0.0 **** 0.06
11798 H 51.44612428793616 86.98455735959885 0.6895119448114819 H 0.0 **** 0.06
11799 H 52.83319175541362 86.05386260029127 0.07078914870714748 H 0.0 **** 0.06
11800 H 52.129025169564756 85.65395262349625 1.6567229762536861 H 0.0 **** 0.06
11801 C 49.44727793723796 78.86784411976964 70.17900137805697 C 0.0 **** -0.24
11802 H 50.227954052624256 78.37268390523207 69.60205103412304 H 0.0 **** 0.06
11803 H 49.2805782605258 78.32064373399763 71.10704746921263 H 0.0 **** 0.06
11804 H 48.524920650340675 78.88893620103266 69.59918184902486 H 0.0 **** 0.06
11805 H 49.75594190553934 79.88761423623086 70.4085466270846 H 0.0 **** 0.06
11806 C 58.78193995682142 34.373608586383625 25.292259590149115 C 0.0 **** -0.24
11807 H 59.15898045018747 33.680180779113925 26.04362759563307 H 0.0 **** 0.06
11808 H 58.64449248789521 33.847118848179974 24.348168876082156 H 0.0 **** 0.06
11809 H 59.4965941785058 35.18587602207202 25.156688311462858 H 0.0 **** 0.06
11810 H 57.82653517442071 34.78243668356714 25.623250435041456 H 0.0 **** 0.06
11811 C 33.39485702203805 27.241079275971813 30.200745047868963 C 0.0 **** -0.24
11812 H 33.07985988950114 27.46002975538903 29.180861222237525 H 0.0 **** 0.06
11813 H 32.68496594354848 27.681087788650046 30.902553320061372 H 0.0 **** 0.06
11814 H 34.38510073477816 27.662562361971766 30.372959897087128 H 0.0 **** 0.06
11815 H 33.42855081246058 26.161509586049263 30.347184725793113 H 0.0 **** 0.06
11816 C 8.87740820359241 109.28281658329598 102.62892301141983 C 0.0 **** -0.24
11817 H 8.899434619768527 109.36028921560191 103.71561678418618 H 0.0 **** 0.06
11818 H 9.162301428745195 110.23991632619718 102.19002712058258 H 0.0 **** 0.06
11819 H 7.8716606738012445 109.01894972936057 102.30366512719843 H 0.0 **** 0.06
11820 H 9.577777720129461 108.51212393010692 102.30559346132785 H 0.0 **** 0.06
11821 C 41.96915056074863 23.386741447699194 29.32092336457231 C 0.0 **** -0.24
11822 H 41.84804483557815 22.97129873955106 28.32052777993539 H 0.0 **** 0.06
11823 H 43.02763008561368 23.403250232190146 29.581686008901045 H 0.0 **** 0.06
11824 H 41.42693364458876 22.77119929970712 30.038357835366213 H 0.0 **** 0.06
11825 H 41.57401857352863 24.402945926619964 29.341703285085146 H 0.0 **** 0.06
11826 C 86.21532657315038 67.22652657578192 85.50175010691822 C 0.0 **** -0.24
11827 H 85.397395099015 66.63508495656262 85.91359656280554 H 0.0 **** 0.06
11828 H 86.72063096505101 67.75859004487612 86.30728003110698 H 0.0 **** 0.06
11829 H 85.81847498877838 67.94430257203882 84.78429350929986 H 0.0 **** 0.06
11830 H 86.92393844834976 66.56649189596502 85.00057743143452 H 0.0 **** 0.06
11831 C 34.833569853425644 71.68868368103122 40.29100256076606 C 0.0 **** -0.24
11832 H 34.80849134530715 72.72255879601366 39.94620130997191 H 0.0 **** 0.06
11833 H 35.321237859871644 71.64319251525424 41.265795952309645 H 0.0 **** 0.06
11834 H 35.39002519140294 71.08130666364215 39.57729031134437 H 0.0 **** 0.06
11835 H 33.8153677876096 71.30910640744534 40.37583893530257 H 0.0 **** 0.06
11836 C 49.221508854685794 63.271595376087134 6.1605408279106655 C 0.0 **** -0.24
11837 H 49.51925675935999 62.33914481093083 6.640699896648698 H 0.0 **** 0.06
11838 H 49.68084307149266 64.11196694286645 6.681665876364264 H 0.0 **** 0.06
11839 H 48.13679891224248 63.36948643510459 6.197933604695095 H 0.0 **** 0.06
11840 H 49.55017455755885 63.263972048989075 5.121062430502661 H 0.0 **** 0.06
11841 C 2.4318430418175296 49.49154525310979 27.694543671108157 C 0.0 **** -0.24
11842 H 3.382501598572432 49.489116791881514 28.22940167232194 H 0.0 **** 0.06
11843 H 1.9761328517695063 48.503776105472696 27.761168629569617 H 0.0 **** 0.06
11844 H 2.6050439644129995 49.74248384135177 26.648158071906565 H 0.0 **** 0.06
11845 H 1.7664300848101675 50.22970819634065 28.140966752695945 H 0.0 **** 0.06
11846 C 66.4609572683552 18.391289479343456 66.28793187332892 C 0.0 **** -0.24
11847 H 65.37951099716446 18.299962242363776 66.18656684076825 H 0.0 **** 0.06
11848 H 66.88611163175128 17.41663297260834 66.5307200967894 H 0.0 **** 0.06
11849 H 66.69230750632602 19.09824049870103 67.08454211707084 H 0.0 **** 0.06
11850 H 66.88427886658394 18.749083365671268 65.34898141024945 H 0.0 **** 0.06
11851 C 103.72565822826382 98.07232228613532 6.192538018113424 C 0.0 **** -0.24
11852 H 103.16039882045555 98.67022114286277 6.907334715403437 H 0.0 **** 0.06
11853 H 103.29428943474858 98.19219111706363 5.198174371740095 H 0.0 **** 0.06
11854 H 103.68290226592941 97.02214438890033 6.482863582043592 H 0.0 **** 0.06
11855 H 104.76308119543893 98.40383295186868 6.181192187790117 H 0.0 **** 0.06
11856 C 3.884736359598861 53.1457564012762 66.30038223870145 C 0.0 **** -0.24
11857 H 4.47343986984923 53.75857307038983 65.61761252107075 H 0.0 **** 0.06
11858 H 3.6211063291053307 52.208216682773724 65.81065673928512 H 0.0 **** 0.06
11859 H 2.975320645356419 53.680341064126694 66.5756673550205 H 0.0 **** 0.06
11860 H 4.469261800241341 52.937016620033944 67.195666665322 H 0.0 **** 0.06
11861 C 29.142553695300194 79.48506752294236 4.522536092879221 C 0.0 **** -0.24
11862 H 29.94379495602169 78.91662342432898 4.993848376046316 H 0.0 **** 0.06
11863 H 29.047005802221918 80.45387980491785 5.0134831061996294 H 0.0 **** 0.06
11864 H 28.204946081289734 78.93729090499588 4.614047159735861 H 0.0 **** 0.06
11865 H 29.375750450965256 79.63421636184324 3.468194366682667 H 0.0 **** 0.06
11866 C 11.061022966678475 101.09006394143762 48.64161460722022 C 0.0 **** -0.24
11867 H 12.04353708280044 100.91290662056414 49.08074550972847 H 0.0 **** 0.06
11868 H 10.62191454537476 101.98430867047912 49.083307597543055 H 0.0 **** 0.06
11869 H 10.415859353745407 100.23333356406201 48.838148537986314 H 0.0 **** 0.06
11870 H 11.165002731430619 101.22753158257879 47.56541090210297 H 0.0 **** 0.06
11871 C 109.46221774413277 8.532797944182736 109.6384017815324 C 0.0 **** -0.24
11872 H 108.64165833277366 8.964653402591502 110.21305541491847 H 0.0 **** 0.06
11873 H 110.30597446984288 8.337806005417917 110.30067840614561 H 0.0 **** 0.06
11874 H 109.7655508155397 9.231532491094416 108.8588771583901 H 0.0 **** 0.06
11875 H 109.13356336975968 7.598877451613156 109.18263169045915 H 0.0 **** 0.06
11876 C 83.84464150622657 64.53641646063087 66.77886138929517 C 0.0 **** -0.24
11877 H 82.85160736476536 64.96355875145821 66.64157269246397 H 0.0 **** 0.06
11878 H 84.39760968562868 65.12776815390285 67.50899628360628 H 0.0 **** 0.06
11879 H 84.37778737194407 64.54359765476326 65.82700235767669 H 0.0 **** 0.06
11880 H 83.75286706245677 63.510762525598345 67.13605884027947 H 0.0 **** 0.06
11881 C 49.29126906390266 12.5582306568106 20.856095587310502 C 0.0 **** -0.24
11882 H 49.53365336130714 11.642176157601998 20.318151790551457 H 0.0 **** 0.06
11883 H 50.005355559392314 12.703409519337786 21.666847187048074 H 0.0 **** 0.06
11884 H 48.284921578907806 12.482672003910892 21.268559193038307 H 0.0 **** 0.06
11885 H 49.34123249232714 13.405429428635617 20.172376022470072 H 0.0 **** 0.06
11886 C 0.00857575423715673 101.25866796788995 100.86442165509004 C 0.0 **** -0.24
11887 H -0.720832246209298 101.20003325582553 101.67274928263441 H 0.0 **** 0.06
11888 H -0.2456545015736964 102.08852971219534 100.20480657888686 H 0.0 **** 0.06
11889 H -0.0014862897694172261 100.3273014574799 100.29803507191087 H 0.0 **** 0.06
11890 H 1.0016476447106584 101.41819667519366 101.2841529552328 H 0.0 **** 0.06
11891 C 61.83487856545762 11.819317790785306 106.01132688055375 C 0.0 **** -0.24
11892 H 61.4625571400393 11.471724720047348 106.97529130723021 H 0.0 **** 0.06
11893 H 62.142499111614605 12.86102868565225 106.09504368939818 H 0.0 **** 0.06
11894 H 61.04624569215658 11.731102525316864 105.26385725123274 H 0.0 **** 0.06
11895 H 62.688055885326015 11.21118477330231 105.71114485553076 H 0.0 **** 0.06
11896 C 108.03631123802211 73.98708403878248 111.56362745866707 C 0.0 **** -0.24
11897 H 107.79779888168068 73.43857159541838 112.47439223315563 H 0.0 **** 0.06
11898 H 107.50081814571934 73.54515153774287 110.7226063790999 H 0.0 **** 0.06
11899 H 109.10983562944062 73.93636558415855 111.37845548549296 H 0.0 **** 0.06
11900 H 107.73685205527659 75.02891522568822 111.67745865715861 H 0.0 **** 0.06
11901 C 118.68013133865261 31.002046710618202 62.17226449147313 C 0.0 **** -0.24
11902 H 119.07219231571806 30.130633084801147 62.698353033567 H 0.0 **** 0.06
11903 H 118.2826850965999 30.692689363819113 61.205451633227256 H 0.0 **** 0.06
11904 H 119.4819008205208 31.725681091633845 62.0224592919547 H 0.0 **** 0.06
11905 H 117.88604950524451 31.45707229337333 62.76429179708168 H 0.0 **** 0.06
11906 C 6.8364381965323275 32.062919593886306 37.875654684641034 C 0.0 **** -0.24
11907 H 6.969711356815679 30.99316339343443 38.035603061869125 H 0.0 **** 0.06
11908 H 5.7717758761119455 32.29446835113595 37.83769533005844 H 0.0 **** 0.06
11909 H 7.304632499839414 32.35032273573984 36.93502244546093 H 0.0 **** 0.06
11910 H 7.299235312425523 32.61260943917836 38.695072437786195 H 0.0 **** 0.06
11911 C 102.8025828598168 35.76103198977978 104.46367870319065 C 0.0 **** -0.24
11912 H 101.86155470843016 35.54525472872393 103.9578252124924 H 0.0 **** 0.06
11913 H 103.0691142901795 34.92228486670973 105.10812647581591 H 0.0 **** 0.06
11914 H 102.69124859247077 36.66154078820853 105.06696893630792 H 0.0 **** 0.06
11915 H 103.58672805674348 35.91417278848246 103.72297450493159 H 0.0 **** 0.06
11916 C 19.562458232308302 59.33881812282377 116.7839143897002 C 0.0 **** -0.24
11917 H 20.050388317463785 60.30341757815418 116.92562085262676 H 0.0 **** 0.06
11918 H 19.01565597946052 59.071742241118216 117.68766506299659 H 0.0 **** 0.06
11919 H 20.315007512375928 58.577860375115506 116.57609599735069 H 0.0 **** 0.06
11920 H 18.869299498784187 59.40216010216088 115.94496305274014 H 0.0 **** 0.06
11921 C 65.60684616184705 71.76795168031089 97.86050411668307 C 0.0 **** -0.24
11922 H 65.39378569551701 71.32036666705983 96.88970266040434 H 0.0 **** 0.06
11923 H 64.8424508368634 72.5092985816245 98.09408311594575 H 0.0 **** 0.06
11924 H 66.58371780918151 72.25105810876227 97.8301139636182 H 0.0 **** 0.06
11925 H 65.60748103998316 70.99195673383471 98.62605882890134 H 0.0 **** 0.06
11926 C 82.83764970125193 80.3053929116472 117.93653790321372 C 0.0 **** -0.24
11927 H 83.40299759765978 80.04585257910725 118.8320736040428 H 0.0 **** 0.06
11928 H 82.07297106264934 81.04017158143 118.18991804882613 H 0.0 **** 0.06
11929 H 82.36415887434384 79.41055801257096 117.53334133375868 H 0.0 **** 0.06
11930 H 83.5130479296669 80.72722066157624 117.19143776205053 H 0.0 **** 0.06
11931 C 73.45821820609561 53.20522500137329 73.53940784748585 C 0.0 **** -0.24
11932 H 72.91937105446499 53.89019505279592 72.8843823715635 H 0.0 **** 0.06
11933 H 72.9257996406827 52.25469172316028 73.58606177913128 H 0.0 **** 0.06
11934 H 73.52503171887648 53.63498798349224 74.53796240068681 H 0.0 **** 0.06
11935 H 74.46134538106406 53.0407291856927 73.145884568079 H 0.0 **** 0.06
11936 C 79.05579381448607 8.141418695854071 16.663845539422095 C 0.0 **** -0.24
11937 H 78.60800344937707 8.862063874953236 17.34835478064378 H 0.0 **** 0.06
11938 H 78.94016356396196 8.494348676945208 15.638818382422777 H 0.0 **** 0.06
11939 H 78.5594944427855 7.177670164895375 16.774968152155534 H 0.0 **** 0.06
11940 H 80.11621451013988 8.03263265682061 16.89389375670741 H 0.0 **** 0.06
11941 C 28.142080542171982 103.70722246900758 32.41525620479504 C 0.0 **** -0.24
11942 H 28.244793012958056 103.07769209206242 33.299174315256195 H 0.0 **** 0.06
11943 H 29.06862798046599 104.25942548624596 32.253833399796065 H 0.0 **** 0.06
11944 H 27.321732318418242 104.40904361632613 32.5631189665736 H 0.0 **** 0.06
11945 H 27.935158967643858 103.08294397236799 31.547132782008106 H 0.0 **** 0.06
11946 C 40.224386088209286 94.83383040482178 1.1480443559242275 C 0.0 **** -0.24
11947 H 39.700421959046736 95.78937404276857 1.1800529054419968 H 0.0 **** 0.06
11948 H 39.89250609236959 94.26812553058315 0.2771326123376241 H 0.0 **** 0.06
11949 H 40.00565871351117 94.26989726829433 2.0544671518374003 H 0.0 **** 0.06
11950 H 41.298003517427986 95.01093977772004 1.0805352241782202 H 0.0 **** 0.06
11951 C 44.35557670061874 29.140257818556762 73.74731015477218 C 0.0 **** -0.24
11952 H 45.18446861033382 29.56538342839289 73.18088891772055 H 0.0 **** 0.06
11953 H 43.502080450155674 29.818508502590987 73.70477949184061 H 0.0 **** 0.06
11954 H 44.65837936536221 29.001217732112366 74.78489723106316 H 0.0 **** 0.06
11955 H 44.077527477337455 28.178735153792218 73.31723889620582 H 0.0 **** 0.06
11956 C 61.92125586659648 98.02427182251972 23.690151440154658 C 0.0 **** -0.24
11957 H 61.39464784224458 97.26355893823086 24.26683462231665 H 0.0 **** 0.06
11958 H 61.236848507222305 98.47487471418458 22.972049697688618 H 0.0 **** 0.06
11959 H 62.75474172652423 97.56438935036982 23.158533114962687 H 0.0 **** 0.06
11960 H 62.30011080499236 98.7927897691934 24.364222426858568 H 0.0 **** 0.06
11961 C 10.220453913237066 80.54210828957778 88.17389548486943 C 0.0 **** -0.24
11962 H 10.912826810487559 80.58661714520036 89.01474167687246 H 0.0 **** 0.06
11963 H 10.395277277991397 81.39297284953014 87.51510425346919 H 0.0 **** 0.06
11964 H 9.195969789467739 80.57496771089552 88.54529437558836 H 0.0 **** 0.06
11965 H 10.378230167492745 79.61632952369186 87.62209678770785 H 0.0 **** 0.06
11966 C 9.848024167197536 11.441819220487645 73.01241547122427 C 0.0 **** -0.24
11967 H 10.081159125664556 11.467389886718593 74.07729567693718 H 0.0 **** 0.06
11968 H 10.40785940473728 10.636288748759824 72.53809418061266 H 0.0 **** 0.06
11969 H 10.122958806036564 12.393213479775028 72.55778327082604 H 0.0 **** 0.06
11970 H 8.779412013215392 11.270727590737039 72.87858219009053 H 0.0 **** 0.06
11971 C 98.1024844254986 49.913270406110634 24.23383825631879 C 0.0 **** -0.24
11972 H 97.22611751307528 50.55909242545837 24.173327412281502 H 0.0 **** 0.06
11973 H 98.23527188051784 49.57767662893741 25.261964139009805 H 0.0 **** 0.06
11974 H 98.98492002200877 50.46927453919525 23.91558921774589 H 0.0 **** 0.06
11975 H 97.96226730413753 49.05028100786417 23.583677530716663 H 0.0 **** 0.06
11976 C 99.426375919604 5.208468788828085 34.976207158514676 C 0.0 **** -0.24
11977 H 99.70076298297195 4.973145048427227 36.004571418643756 H 0.0 **** 0.06
11978 H 99.37356365384079 6.29079856227284 34.85317558057237 H 0.0 **** 0.06
11979 H 98.45450825040433 4.770016929962594 34.75028293884232 H 0.0 **** 0.06
11980 H 100.17608917701685 4.801156691160543 34.29714713603466 H 0.0 **** 0.06
11981 C 110.73542308707906 46.50244759742855 84.14143210831068 C 0.0 **** -0.24
11982 H 109.91750037083109 47.183928171545055 83.90496372039243 H 0.0 **** 0.06
11983 H 110.42167856786581 45.81819580836462 84.92976860722618 H 0.0 **** 0.06
11984 H 111.59850302645306 47.07589876223814 84.48027776108322 H 0.0 **** 0.06
11985 H 111.0044424961942 45.93396063661309 83.25172055645601 H 0.0 **** 0.06
11986 C 67.7422671158892 49.29131905750421 75.0430021481796 C 0.0 **** -0.24
11987 H 66.9834252697969 49.6219382067826 75.75268140002595 H 0.0 **** 0.06
11988 H 67.9526360048655 48.23374361612116 75.20263513812054 H 0.0 **** 0.06
11989 H 68.65405638546906 49.86927108572513 75.19019348201198 H 0.0 **** 0.06
11990 H 67.37738728245739 49.43980477936191 74.02596313626498 H 0.0 **** 0.06
11991 C 108.58884794949287 106.77389710663442 45.30132018580596 C 0.0 **** -0.24
11992 H 108.1353890701543 106.1794750668335 46.09409254556371 H 0.0 **** 0.06
11993 H 108.15933726516033 106.48647335235802 44.34174386594762 H 0.0 **** 0.06
11994 H 109.66485416248122 106.59931763589202 45.28575641161797 H 0.0 **** 0.06
11995 H 108.39441704064427 107.83127951791408 45.485150863635624 H 0.0 **** 0.06
11996 C 32.728240064952494 82.89333005414767 21.60518826855366 C 0.0 **** -0.24
11997 H 32.85695250827605 82.32490287617685 20.683586253791134 H 0.0 **** 0.06
11998 H 33.086320832306946 82.3026508208059 22.44817982037023 H 0.0 **** 0.06
11999 H 31.672419353452156 83.1251520000373 21.744747475925692 H 0.0 **** 0.06
12000 H 33.297878695074175 83.82102388249214 21.542127833863958 H 0.0 **** 0.06
12001 C 18.337356682863287 38.70662073982538 70.8897700042782 C 0.0 **** -0.24
12002 H 18.790310574705785 39.293638113170346 71.68823596958552 H 0.0 **** 0.06
12003 H 17.66078038248574 37.96788644805895 71.32144097381712 H 0.0 **** 0.06
12004 H 19.118107851952374 38.19908085954961 70.3239277940701 H 0.0 **** 0.06
12005 H 17.778274793433127 39.367269565444644 70.22597317520464 H 0.0 **** 0.06
12006 C 13.353057675720237 101.76622111993325 106.63138467788386 C 0.0 **** -0.24
12007 H 14.409822686231678 101.82684286865802 106.37139183040102 H 0.0 **** 0.06
12008 H 13.16569129059917 102.3630575117381 107.52464040505996 H 0.0 **** 0.06
12009 H 13.085190902165834 100.7282769366854 106.82529380635395 H 0.0 **** 0.06
12010 H 12.753088779986484 102.14884791061942 105.80561797872048 H 0.0 **** 0.06
12011 C 53.12235915019695 80.79205263794418 18.23120406523347 C 0.0 **** -0.24
12012 H 52.36237635742088 80.42063465804145 17.54404514236299 H 0.0 **** 0.06
12013 H 52.776952272024964 80.66717751490052 19.25710406938623 H 0.0 **** 0.06
12014 H 53.302967106603575 81.84937167871723 18.03453468058703 H 0.0 **** 0.06
12015 H 54.04649123444799 80.23266324383272 18.087753964467282 H 0.0 **** 0.06
12016 C 106.65873345912584 83.2331917443114 25.632119438037392 C 0.0 **** -0.24
12017 H 106.51010116156363 82.19026317424664 25.3520444217248 H 0.0 **** 0.06
12018 H 107.67121300086731 83.36599944373202 26.013928142521905 H 0.0 **** 0.06
12019 H 105.94036891491987 83.50740246455763 26.40475223406378 H 0.0 **** 0.06
12020 H 106.51297209585402 83.8678972435196 24.758965941040657 H 0.0 **** 0.06
12021 C 9.328236578146015 45.82671720226979 78.39704361039753 C 0.0 **** -0.24
12022 H 10.225416321918484 45.62251612966888 77.81222651929545 H 0.0 **** 0.06
12023 H 8.462659975238118 45.39202557622756 77.8960336627056 H 0.0 **** 0.06
12024 H 9.192676284228437 46.904284929528934 78.48896075673383 H 0.0 **** 0.06
12025 H 9.433151970296159 45.387681910385844 79.38923529959487 H 0.0 **** 0.06
12026 C 62.547379632417396 28.382642095025503 38.294629330302655 C 0.0 **** -0.24
12027 H 63.13393064526269 27.676660751496996 37.70675534897043 H 0.0 **** 0.06
12028 H 61.68737290921751 27.869877423416582 38.72575856257964 H 0.0 **** 0.06
12029 H 62.202539261618945 29.19197751190078 37.65139621036445 H 0.0 **** 0.06
12030 H 63.16564327834079 28.792321632347537 39.093644557983964 H 0.0 **** 0.06
12031 C 82.50051689960634 83.14984454930783 31.504372345408 C 0.0 **** -0.24
12032 H 82.31471504591266 83.01219012558198 32.56915469362525 H 0.0 **** 0.06
12033 H 81.61611023313074 82.85355626656116 30.93937612040122 H 0.0 **** 0.06
12034 H 83.34841561894098 82.53586677727202 31.20120636887725 H 0.0 **** 0.06
12035 H 82.72319366048072 84.1990827674602 31.30739300563812 H 0.0 **** 0.06
12036 C 55.71979025000397 37.897414525542686 49.98059550248638 C 0.0 **** -0.24
12037 H 55.118234348249985 38.78405045449669 49.781360035063585 H 0.0 **** 0.06
12038 H 55.07464289027365 37.018759667493036 50.0053773194052 H 0.0 **** 0.06
12039 H 56.22168364519774 38.006867068809896 50.94166350021027 H 0.0 **** 0.06
12040 H 56.46411587863864 37.77993820262068 49.19265307131923 H 0.0 **** 0.06
12041 C 22.019568052799286 118.51259673257259 94.19169298229943 C 0.0 **** -0.24
12042 H 21.688729879925788 118.7704810197508 95.19693487925738 H 0.0 **** 0.06
12043 H 22.626383943272003 119.3236892969047 93.7889586934046 H 0.0 **** 0.06
12044 H 21.15077317652991 118.35548022474545 93.55299321273756 H 0.0 **** 0.06
12045 H 22.61247801156061 117.59874122696898 94.22798979219863 H 0.0 **** 0.06
12046 C 5.596609067667231 88.31413881526066 106.9425848585077 C 0.0 **** -0.24
12047 H 6.343995368633358 88.19631361547795 107.72708565354168 H 0.0 **** 0.06
12048 H 4.77331418106192 87.62204718655289 107.1176341031049 H 0.0 **** 0.06
12049 H 6.051077204874304 88.10125163361806 105.97459241307493 H 0.0 **** 0.06
12050 H 5.21987901553922 89.33730844373281 106.9494399375061 H 0.0 **** 0.06
12051 C 19.612063180610797 23.384399600808763 94.83967816592673 C 0.0 **** -0.24
12052 H 19.254802968209173 23.12415184998889 93.84411765823285 H 0.0 **** 0.06
12053 H 18.79541564682396 23.290167467561446 95.55533288098479 H 0.0 **** 0.06
12054 H 19.975610384074987 24.411981557483614 94.83737120985663 H 0.0 **** 0.06
12055 H 20.42322789534079 22.712770636267408 95.12231920855615 H 0.0 **** 0.06
12056 C 29.114508566967487 9.019442141892778 26.06478582793642 C 0.0 **** -0.24
12057 H 29.931090526286248 9.331638148613187 26.71548629804184 H 0.0 **** 0.06
12058 H 28.228954836336342 9.616845818616923 26.28085754693265 H 0.0 **** 0.06
12059 H 28.893913397096846 7.965756316214424 26.239527351218953 H 0.0 **** 0.06
12060 H 29.404024855919232 9.162719148889792 25.023857600887368 H 0.0 **** 0.06
12061 C 110.79178557277382 15.927962670438944 72.769449765997 C 0.0 **** -0.24
12062 H 110.17980644157649 15.828228059333753 73.6657276808431 H 0.0 **** 0.06
12063 H 110.17981649835849 15.72958379542473 71.88817433577668 H 0.0 **** 0.06
12064 H 111.61408983537939 15.213351386789867 72.8097859079202 H 0.0 **** 0.06
12065 H 111.19173989016448 16.940835589802504 72.71446241234821 H 0.0 **** 0.06
12066 C 77.76084640396144 104.34264554315965 13.79742503386376 C 0.0 **** -0.24
12067 H 77.57426898837443 104.42192389688512 14.868881724155244 H 0.0 **** 0.06
12068 H 76.97607429702435 103.7433538561665 13.335896292774407 H 0.0 **** 0.06
12069 H 78.72736059917665 103.86784087577806 13.630675622925423 H 0.0 **** 0.06
12070 H 77.76466115469546 105.33903149054245 13.35547134632003 H 0.0 **** 0.06
12071 C 65.66556352873158 34.97975144686902 64.4928036909258 C 0.0 **** -0.24
12072 H 66.59717420260935 34.42103981745174 64.41257063952332 H 0.0 **** 0.06
12073 H 64.82303453065092 34.30652278806667 64.33301739584005 H 0.0 **** 0.06
12074 H 65.6490634287129 35.769315348783635 63.74104362074585 H 0.0 **** 0.06
12075 H 65.59259344263899 35.42346173712343 65.4866005592886 H 0.0 **** 0.06
12076 C 32.77151005906816 59.491357163803094 15.062121535721047 C 0.0 **** -0.24
12077 H 33.28603814337782 58.55937175697465 14.829345705658426 H 0.0 **** 0.06
12078 H 33.41475804261279 60.334789213807746 14.807790886667846 H 0.0 **** 0.06
12079 H 32.5353600280921 59.52032691194618 16.125470697483536 H 0.0 **** 0.06
12080 H 31.84924323922789 59.55100134493917 14.483515364228936 H 0.0 **** 0.06
12081 C 30.58960785370145 28.13194126929406 96.32277709762116 C 0.0 **** -0.24
12082 H 31.24523506868813 27.976488441075702 97.17946720047257 H 0.0 **** 0.06
12083 H 29.65913503575726 28.59417879473699 96.65674647163777 H 0.0 **** 0.06
12084 H 30.369954238085995 27.172032251349947 95.85400677784082 H 0.0 **** 0.06
12085 H 31.08218846316219 28.78436745014713 95.60179998910306 H 0.0 **** 0.06
12086 C 23.210590668146807 100.87084004169586 40.000205141854536 C 0.0 **** -0.24
12087 H 22.89371712765123 99.82769160381531 40.013475509035544 H 0.0 **** 0.06
12088 H 24.042928912774585 100.98992850384474 39.306678974457384 H 0.0 **** 0.06
12089 H 23.525476621178342 101.16803976098294 41.000722386509324 H 0.0 **** 0.06
12090 H 22.377994904456443 101.49863750154148 39.6796582191879 H 0.0 **** 0.06
12091 C 73.13917342588809 60.823755176543386 113.37680964156786 C 0.0 **** -0.24
12092 H 72.7187373253189 60.006699960550435 113.96321379844484 H 0.0 **** 0.06
12093 H 74.1762161707226 60.59589387821734 113.12768071537401 H 0.0 **** 0.06
12094 H 73.09926999251869 61.74497130794998 113.95738097840359 H 0.0 **** 0.06
12095 H 72.56356478513322 60.94657501081102 112.45912637563198 H 0.0 **** 0.06
12096 C 96.27770759509508 48.714494168440126 110.14011915721048 C 0.0 **** -0.24
12097 H 96.97901309598205 49.20494312849735 109.46576841493192 H 0.0 **** 0.06
12098 H 95.42265572099097 49.36754623619328 110.31370439958623 H 0.0 **** 0.06
12099 H 96.77322339965644 48.50529807232539 111.08872798692266 H 0.0 **** 0.06
12100 H 95.9375076243474 47.78057252893967 109.6941170856337 H 0.0 **** 0.06
12101 C 20.349596668284075 40.22103240540129 60.49068150168185 C 0.0 **** -0.24
12102 H 19.55168032094753 40.0368049927859 61.20954191195494 H 0.0 **** 0.06
12103 H 20.485256764506016 39.337882534868136 59.865053568163546 H 0.0 **** 0.06
12104 H 21.27646352125859 40.43522137627522 61.02308596170553 H 0.0 **** 0.06
12105 H 20.083964870035192 41.07226606785514 59.86467470708635 H 0.0 **** 0.06
12106 C 58.851284174956334 25.143686515354176 84.43955366447722 C 0.0 **** -0.24
12107 H 58.32390210129276 24.324526681681277 84.92829785113724 H 0.0 **** 0.06
12108 H 59.786436549924815 25.339868170520376 84.96685105208772 H 0.0 **** 0.06
12109 H 58.22910605663404 26.039347033579332 84.45772739936845 H 0.0 **** 0.06
12110 H 59.06657344660877 24.87180648676373 83.40609957256282 H 0.0 **** 0.06
12111 C 95.75588882267249 68.64023831296814 31.949741283070864 C 0.0 **** -0.24
12112 H 95.11837776562032 69.4059893283549 31.507113177731526 H 0.0 **** 0.06
12113 H 95.16786106641877 67.73889953330306 32.12989532874229 H 0.0 **** 0.06
12114 H 96.16093350073123 69.00430859941667 32.893655566297525 H 0.0 **** 0.06
12115 H 96.57379253257312 68.41038353732176 31.2676629811898 H 0.0 **** 0.06
12116 C 61.6856367528961 46.170902697404095 51.28550304257145 C 0.0 **** -0.24
12117 H 62.4520795816712 46.28874405848112 52.05147586790112 H 0.0 **** 0.06
12118 H 60.92947822527776 46.9469680380815 51.405296427043666 H 0.0 **** 0.06
12119 H 61.220411436798855 45.19041588826523 51.38616376478154 H 0.0 **** 0.06
12120 H 62.14162452352514 46.256877879352345 50.29980992583755 H 0.0 **** 0.06
12121 C 17.27807249168103 108.92339596946994 22.846643810120383 C 0.0 **** -0.24
12122 H 16.63837056133528 109.26782310475531 22.0351656187116 H 0.0 **** 0.06
12123 H 18.147701982124403 108.41267239321175 22.431670778283625 H 0.0 **** 0.06
12124 H 16.72048670206385 108.23487027919197 23.482235722982054 H 0.0 **** 0.06
12125 H 17.606670521043668 109.7785537461991 23.437567749648593 H 0.0 **** 0.06
12126 C 40.57072700062017 91.65818653436702 79.57375434184047 C 0.0 **** -0.24
12127 H 40.39691643685123 92.07233216814132 80.56680964667959 H 0.0 **** 0.06
12128 H 39.62437633135673 91.32010928890753 79.15015685972611 H 0.0 **** 0.06
12129 H 41.25786792737196 90.81539164283322 79.64763042953638 H 0.0 **** 0.06
12130 H 41.003086169737685 92.42470415759243 78.93114107374294 H 0.0 **** 0.06
12131 C 14.432465111266254 44.51206429009841 94.00934422243841 C 0.0 **** -0.24
12132 H 13.937259325816513 44.06294843128916 94.86919690630842 H 0.0 **** 0.06
12133 H 14.313617625292238 43.86227986921986 93.1407423519353 H 0.0 **** 0.06
12134 H 15.493239838681859 44.63791671493348 94.22615223241476 H 0.0 **** 0.06
12135 H 13.98677744341768 45.48442825646444 93.79942425122246 H 0.0 **** 0.06
12136 C 67.13580453736864 82.85770648021821 98.42753442833677 C 0.0 **** -0.24
12137 H 67.31808359496739 83.77817809663094 97.87189967113417 H 0.0 **** 0.06
12138 H 67.98533367053943 82.18607984036072 98.30683880429888 H 0.0 **** 0.06
12139 H 66.23431194125322 82.377447969137 98.04695272170787 H 0.0 **** 0.06
12140 H 67.00412257865656 83.09178872693889 99.48433903827038 H 0.0 **** 0.06
12141 C 1.8383915301702718 85.93853725150038 117.46715981462683 C 0.0 **** -0.24
12142 H 2.534485510871198 86.45976121214895 116.81012609319659 H 0.0 **** 0.06
12143 H 0.9090999241531126 85.74457844589213 116.93164076270378 H 0.0 **** 0.06
12144 H 1.632716739896349 86.55659035669444 118.34139996323275 H 0.0 **** 0.06
12145 H 2.279347691732511 84.99421408000566 117.78628984531534 H 0.0 **** 0.06
12146 C 19.026803668619976 80.97932612157683 110.84046358878751 C 0.0 **** -0.24
12147 H 18.57935831459855 81.84726703358004 111.32478455390668 H 0.0 **** 0.06
12148 H 20.029289719275 81.23283510302824 110.49426488555748 H 0.0 **** 0.06
12149 H 18.412672493379233 80.68050438020717 109.99107084982967 H 0.0 **** 0.06
12150 H 19.086049493139484 80.15616850404214 111.55365650394842 H 0.0 **** 0.06
12151 C 67.07955355969835 103.81140101871571 75.3550531194897 C 0.0 **** -0.24
12152 H 66.49083726595325 104.68358461715721 75.06888266560429 H 0.0 **** 0.06
12153 H 66.81574990991788 103.512731867443 76.37026394512549 H 0.0 **** 0.06
12154 H 68.14006697710079 104.05945830766933 75.31242169461387 H 0.0 **** 0.06
12155 H 66.86984688754686 102.99085781730977 74.66855871945748 H 0.0 **** 0.06
12156 C 10.677917780768496 40.689606099389394 114.0385655802428 C 0.0 **** -0.24
12157 H 10.698601420847808 40.30005665848513 113.02122643625114 H 0.0 **** 0.06
12158 H 9.66402486449607 41.00790324879347 114.28495705612266 H 0.0 **** 0.06
12159 H 11.354701342542285 41.540616967495765 114.11588368793456 H 0.0 **** 0.06
12160 H 10.992115394380733 39.909910579449345 114.73201658130498 H 0.0 **** 0.06
12161 C 41.46464061548913 84.25716946070827 60.4143628484832 C 0.0 **** -0.24
12162 H 40.94961973193665 84.37093306427431 61.36791508253021 H 0.0 **** 0.06
12163 H 42.34587140107385 84.89941057678584 60.3990563376532 H 0.0 **** 0.06
12164 H 40.7938803743225 84.5417507498621 59.60349308317557 H 0.0 **** 0.06
12165 H 41.76870404490168 83.21888422560511 60.28630153615365 H 0.0 **** 0.06
12166 C 29.74445023016372 100.58371824967924 93.08191136421868 C 0.0 **** -0.24
12167 H 30.290685138340223 101.50478517861706 93.2861434061169 H 0.0 **** 0.06
12168 H 29.53939763049263 100.06684550230517 94.01964404980609 H 0.0 **** 0.06
12169 H 30.3426200691207 99.94217860752448 92.43514457763087 H 0.0 **** 0.06
12170 H 28.80297346047699 100.82302109278794 92.58590400309095 H 0.0 **** 0.06
12171 C 4.815837877798458 26.531242113372016 47.205411161310344 C 0.0 **** -0.24
12172 H 5.617125795994866 27.204027370136565 47.51312745132915 H 0.0 **** 0.06
12173 H 4.897411429679721 26.334929839030764 46.13643276845747 H 0.0 **** 0.06
12174 H 3.852907750905217 26.994302257932794 47.41867950460947 H 0.0 **** 0.06
12175 H 4.8975534830224206 25.593938708526153 47.755226059024125 H 0.0 **** 0.06
12176 C 28.913833228151418 47.66045608716843 65.24681815768935 C 0.0 **** -0.24
12177 H 29.801808577314006 48.1113479087787 65.68979322413821 H 0.0 **** 0.06
12178 H 28.023100909777057 48.05838738883052 65.7323695462126 H 0.0 **** 0.06
12179 H 28.94988279899212 46.57924307218055 65.38149345140263 H 0.0 **** 0.06
12180 H 28.881625771444817 47.89322968457045 64.18198072423084 H 0.0 **** 0.06
12181 C 92.6813298314186 94.79648390645602 66.32904166405558 C 0.0 **** -0.24
12182 H 92.57854404765814 94.52687891296046 67.3800258612705 H 0.0 **** 0.06
12183 H 93.51034882609628 94.23920851149492 65.89068299790745 H 0.0 **** 0.06
12184 H 92.87716335504442 95.86536025084988 66.24598060337462 H 0.0 **** 0.06
12185 H 91.75969822154943 94.55366679333343 65.80054325394542 H 0.0 **** 0.06
12186 C 40.94063295012322 92.38837374979158 21.202023422985775 C 0.0 **** -0.24
12187 H 41.0824044695851 91.48772205193256 21.800493140577757 H 0.0 **** 0.06
12188 H 41.80070156864383 93.04619160606904 21.328297827816755 H 0.0 **** 0.06
12189 H 40.03753932686118 92.90338160404752 21.52859707374418 H 0.0 **** 0.06
12190 H 40.84382897271911 92.11347548576265 20.15160326109678 H 0.0 **** 0.06
12191 C 89.87108593722678 23.208270905498495 18.070652895862708 C 0.0 **** -0.24
12192 H 89.74664308592097 23.4819910429041 17.022945478598302 H 0.0 **** 0.06
12193 H 89.38057584220553 23.949986063836008 18.699961216007637 H 0.0 **** 0.06
12194 H 90.9335173703902 23.171147134533044 18.31163391380568 H 0.0 **** 0.06
12195 H 89.42401679874541 22.229498852520464 18.245921407525998 H 0.0 **** 0.06
12196 C 64.14293434632577 74.88084210998127 86.65531561339552 C 0.0 **** -0.24
12197 H 64.5536715139342 75.71860944017092 87.21800237755238 H 0.0 **** 0.06
12198 H 64.89826122397628 74.10029600560298 86.56229585815532 H 0.0 **** 0.06
12199 H 63.84849265261746 75.2204397871229 85.66162091435035 H 0.0 **** 0.06
12200 H 63.272102434927255 74.4853411613527 87.17676673064722 H 0.0 **** 0.06
12201 C 54.04636356791673 77.61714931360049 15.449157794967476 C 0.0 **** -0.24
12202 H 54.69908290466651 76.7447757443191 15.409265120416904 H 0.0 **** 0.06
12203 H 53.52094224947223 77.63342913295224 16.40468176033063 H 0.0 **** 0.06
12204 H 53.321760599473976 77.56608507655284 14.635873337483329 H 0.0 **** 0.06
12205 H 54.64425353616741 78.52349770303996 15.346762338681788 H 0.0 **** 0.06
12206 C 22.24333327486741 68.78998783017633 43.3002484617175 C 0.0 **** -0.24
12207 H 22.063292723930545 67.80933989480124 42.859093578228226 H 0.0 **** 0.06
12208 H 22.843374802976996 69.3911470348487 42.615853512826675 H 0.0 **** 0.06
12209 H 22.77640076375981 68.67189067080182 44.24298575799435 H 0.0 **** 0.06
12210 H 21.290615915234184 69.28743403675466 43.48085702286983 H 0.0 **** 0.06
12211 C 10.216865766390185 33.95936448366996 118.55449012513321 C 0.0 **** -0.24
12212 H 10.386470872325503 33.05312464835146 117.97321736029673 H 0.0 **** 0.06
12213 H 9.270686572859177 34.41033224058117 118.25482764159803 H 0.0 **** 0.06
12214 H 11.028997951841347 34.66355150915467 118.37301690007249 H 0.0 **** 0.06
12215 H 10.182043759240685 33.70999992850312 119.61420481098953 H 0.0 **** 0.06
12216 C 69.12557863931764 72.38041602264894 38.48088797066177 C 0.0 **** -0.24
12217 H 69.2138662812176 73.00689537787912 39.36824328489047 H 0.0 **** 0.06
12218 H 68.1297362258014 72.49506929928637 38.053440838290896 H 0.0 **** 0.06
12219 H 69.2862366641894 71.33772085416226 38.75516221763809 H 0.0 **** 0.06
12220 H 69.87387165876669 72.68201514303101 37.74692735544093 H 0.0 **** 0.06
12221 C 80.14502331753164 0.35843030434867273 110.33842266608104 C 0.0 **** -0.24
12222 H 80.49816168319163 -0.6063339754410322 109.97367786138335 H 0.0 **** 0.06
12223 H 80.58567486973052 1.1558114129356056 109.73951434225572 H 0.0 **** 0.06
12224 H 80.43846344577233 0.4824265643171657 111.38094336193818 H 0.0 **** 0.06
12225 H 79.05905784388904 0.40136069437321 110.25911627987557 H 0.0 **** 0.06
12226 C 76.35924795174321 111.13036888679909 84.48986428877905 C 0.0 **** -0.24
12227 H 75.51979802223434 111.65367137069471 84.94779539981161 H 0.0 **** 0.06
12228 H 77.29013136091373 111.46719223503707 84.9458069021257 H 0.0 **** 0.06
12229 H 76.37955736191446 111.34244555062139 83.42053383007993 H 0.0 **** 0.06
12230 H 76.24617558589068 110.05767279379145 84.64359210775828 H 0.0 **** 0.06
12231 C 93.87209652572241 111.47635310022048 108.93540331895639 C 0.0 **** -0.24
12232 H 93.76406605708681 110.5171175487622 109.44356102736762 H 0.0 **** 0.06
12233 H 94.73128723265341 112.0088671675781 109.34433940133562 H 0.0 **** 0.06
12234 H 92.9700621308935 112.0698416083244 109.08710024576459 H 0.0 **** 0.06
12235 H 94.02195303552367 111.30706630516943 107.86898239254126 H 0.0 **** 0.06
12236 C 24.94158425109481 44.413504095479766 5.322898832446057 C 0.0 **** -0.24
12237 H 24.279349968552253 45.2325949597294 5.602971088768584 H 0.0 **** 0.06
12238 H 24.358677425394887 43.49883823128883 5.208711983173416 H 0.0 **** 0.06
12239 H 25.69253375470163 44.271195616895085 6.10019782567656 H 0.0 **** 0.06
12240 H 25.433690167382906 44.651074693286034 4.380457602780808 H 0.0 **** 0.06
12241 C 72.11832820070757 48.251615861386206 88.43700420541691 C 0.0 **** -0.24
12242 H 72.64352024368861 48.82915504835669 87.67548241027643 H 0.0 **** 0.06
12243 H 72.39691536635232 48.61726275055586 89.42497893779407 H 0.0 **** 0.06
12244 H 72.39203816411103 47.2001792997689 88.34652430429918 H 0.0 **** 0.06
12245 H 71.04262229089647 48.36033398340131 88.29777508088586 H 0.0 **** 0.06
12246 C 5.374976440513677 31.633204961758516 47.362942395207085 C 0.0 **** -0.24
12247 H 5.914086314967818 32.46742394723079 46.91345510297847 H 0.0 **** 0.06
12248 H 5.892573292224114 30.70147335975657 47.135640247430864 H 0.0 **** 0.06
12249 H 4.362901721249472 31.595805202476228 46.95823920713473 H 0.0 **** 0.06
12250 H 5.329022748854726 31.770021463613446 48.443642681968804 H 0.0 **** 0.06
12251 C 35.39754495813071 65.2312495456342 109.74232034653832 C 0.0 **** -0.24
12252 H 35.35555986010121 64.75945922263895 108.76046204260712 H 0.0 **** 0.06
12253 H 35.943388213068545 64.58528260849036 110.43131057370829 H 0.0 **** 0.06
12254 H 34.38487662579331 65.386624306621 110.1139277735005 H 0.0 **** 0.06
12255 H 35.90715058903163 66.19163631680951 109.66296082440448 H 0.0 **** 0.06
12256 C 65.03839913434285 6.661858511735488 15.001405793809141 C 0.0 **** -0.24
12257 H 65.92731103124157 6.5991987979387545 14.373491799294868 H 0.0 **** 0.06
12258 H 65.32382962551284 6.554447058858216 16.04790605071861 H 0.0 **** 0.06
12259 H 64.34509515767235 5.865936373375803 14.730499753596973 H 0.0 **** 0.06
12260 H 64.55710357690404 7.629129598732163 14.85317669433067 H 0.0 **** 0.06
12261 C 68.34480605986195 22.107894533021323 42.18668990618727 C 0.0 **** -0.24
12262 H 67.4588714732914 21.639394259964746 42.61556516035566 H 0.0 **** 0.06
12263 H 68.46536029143343 23.107478028964096 42.60547402525971 H 0.0 **** 0.06
12264 H 68.23105697095082 22.179217385957344 41.10461836898982 H 0.0 **** 0.06
12265 H 69.22364136199079 21.506946964000917 42.420215270168285 H 0.0 **** 0.06
12266 C 8.068169169018972 37.95473921942664 23.559786101337522 C 0.0 **** -0.24
12267 H 7.7496487016880735 38.95251648501102 23.862194485248466 H 0.0 **** 0.06
12268 H 7.235020984496032 37.26059891458448 23.663650580885133 H 0.0 **** 0.06
12269 H 8.893794523538986 37.630567841401444 24.194676928220815 H 0.0 **** 0.06
12270 H 8.3965849792435 37.97729053640711 22.520697047834275 H 0.0 **** 0.06
12271 C 31.66382201493775 100.9983080574516 98.17024955736917 C 0.0 **** -0.24
12272 H 32.72725490896764 100.8259231873921 98.33383275498107 H 0.0 **** 0.06
12273 H 31.170231852073044 100.04942456372729 97.96137541206386 H 0.0 **** 0.06
12274 H 31.531349055942 101.67192390075712 97.3234029356359 H 0.0 **** 0.06
12275 H 31.227282964483578 101.44655828177181 99.06336322549282 H 0.0 **** 0.06
12276 C 37.238827653593944 73.64521030964877 104.27843597096086 C 0.0 **** -0.24
12277 H 37.99614969126219 74.19752057392469 104.83542099249854 H 0.0 **** 0.06
12278 H 37.04294913048989 74.14999701269431 103.33236749303319 H 0.0 **** 0.06
12279 H 36.319844269337125 73.59780556038777 104.8630195172737 H 0.0 **** 0.06
12280 H 37.59826836801528 72.63462596434783 104.083704770559 H 0.0 **** 0.06
12281 C 30.05878856525348 103.43130595042103 71.08807549349083 C 0.0 **** -0.24
12282 H 29.073752533283596 103.82276707704409 71.34342977449617 H 0.0 **** 0.06
12283 H 30.10027353655218 103.22370267965454 70.01856790521566 H 0.0 **** 0.06
12284 H 30.239190039081365 102.51190759449705 71.64399137654732 H 0.0 **** 0.06
12285 H 30.82005745261189 104.1679851955191 71.34590484663866 H 0.0 **** 0.06
12286 C 84.58492467168426 104.5097479007851 68.64900987294607 C 0.0 **** -0.24
12287 H 85.29607944029212 104.07907852939093 67.94529241597891 H 0.0 **** 0.06
12288 H 84.42739179439741 103.81632821079086 69.47623608357137 H 0.0 **** 0.06
12289 H 83.63767240769576 104.69155706777485 68.14147451999148 H 0.0 **** 0.06
12290 H 84.97847762954771 105.45064267690555 69.03331137480589 H 0.0 **** 0.06
12291 C 40.32655229352357 18.37235910119706 87.25461725971866 C 0.0 **** -0.24
12292 H 39.57248199787235 17.586591571519538 87.21483132750612 H 0.0 **** 0.06
12293 H 41.200964129467486 18.06693093492972 86.68041336233131 H 0.0 **** 0.06
12294 H 40.61410170994228 18.548058548702944 88.29108413804158 H 0.0 **** 0.06
12295 H 39.91621855699039 19.289793536770866 86.83101021032587 H 0.0 **** 0.06
12296 C 9.263340148545822 63.20243063237836 18.939003363802225 C 0.0 **** -0.24
12297 H 9.322194532134205 63.68614123683401 17.96429635847428 H 0.0 **** 0.06
12298 H 8.312953713783386 62.67555395675273 19.026628625453917 H 0.0 **** 0.06
12299 H 9.333902741197733 63.95641985382887 19.722977051597542 H 0.0 **** 0.06
12300 H 10.08306026113037 62.49225329210598 19.04196248587931 H 0.0 **** 0.06
12301 C 105.96397555805814 46.41220517422107 49.210980574940294 C 0.0 **** -0.24
12302 H 106.07760421946122 46.09826706077325 50.24887314733621 H 0.0 **** 0.06
12303 H 106.07525007498134 45.54826529876135 48.555272195169636 H 0.0 **** 0.06
12304 H 106.72617990663292 47.152424514213294 48.969878179685 H 0.0 **** 0.06
12305 H 104.97463951800765 46.84976588052598 49.07091094738655 H 0.0 **** 0.06
12306 C 73.03508021882266 84.83548441273851 90.83516682199212 C 0.0 **** -0.24
12307 H 74.06696808482087 84.80658666282889 90.48427230869157 H 0.0 **** 0.06
12308 H 72.74440030931359 83.84701710230897 91.1913411534465 H 0.0 **** 0.06
12309 H 72.38169380357306 85.13317531448311 90.01452991086063 H 0.0 **** 0.06
12310 H 72.94782706974368 85.55579487365293 91.64901652471326 H 0.0 **** 0.06
12311 C 105.13295024896638 10.783348909695803 8.681271020593073 C 0.0 **** -0.24
12312 H 106.01441799538347 10.561095651995998 9.282959219524002 H 0.0 **** 0.06
12313 H 105.09116411953855 11.853925345369362 8.480506011401914 H 0.0 **** 0.06
12314 H 104.23695659752056 10.479570373246958 9.223468035399591 H 0.0 **** 0.06
12315 H 105.18962962893798 10.237620940235757 7.738832658687883 H 0.0 **** 0.06
12316 C 117.26609369357666 28.323311447083427 84.20918341228403 C 0.0 **** -0.24
12317 H 116.18384814761203 28.216185200908 84.13451664059596 H 0.0 **** 0.06
12318 H 117.73257649537894 27.94658270527725 83.29856172431658 H 0.0 **** 0.06
12319 H 117.62907124238274 27.75372159953622 85.06548613454697 H 0.0 **** 0.06
12320 H 117.51903778552689 29.374709910209333 84.3390565079209 H 0.0 **** 0.06
12321 C 28.970499550591256 97.69727199803742 114.05757117191841 C 0.0 **** -0.24
12322 H 28.520326319840393 98.65806798986489 113.80828682948447 H 0.0 **** 0.06
12323 H 29.31957577774827 97.71718739479849 115.09028350915752 H 0.0 **** 0.06
12324 H 29.81263197307601 97.50751551975759 113.39243283896971 H 0.0 **** 0.06
12325 H 28.229073178709456 96.90719929592353 113.93901897812606 H 0.0 **** 0.06
12326 C 89.01938632681652 13.299512308663992 108.31035505537275 C 0.0 **** -0.24
12327 H 88.1619638004133 13.52248588710981 108.9454148706431 H 0.0 **** 0.06
12328 H 88.75177408884772 12.51729085093018 107.60047984817265 H 0.0 **** 0.06
12329 H 89.85061347464793 12.96098079461737 108.92856973508216 H 0.0 **** 0.06
12330 H 89.31260267975307 14.198576192191155 107.76698045387522 H 0.0 **** 0.06
12331 C 49.24483721732963 58.66593142638516 99.83087702786139 C 0.0 **** -0.24
12332 H 48.94440013793553 57.64462952567024 100.06935486850494 H 0.0 **** 0.06
12333 H 48.637038241428854 59.36654775764987 100.40354336869561 H 0.0 **** 0.06
12334 H 49.09999613159752 58.845733997842444 98.76535241693043 H 0.0 **** 0.06
12335 H 50.29501341308034 58.80355008792756 100.08354575864814 H 0.0 **** 0.06
12336 C 30.701295369914618 92.85463781239207 34.24391308180287 C 0.0 **** -0.24
12337 H 30.506244459116346 93.89688390832475 33.992700527320835 H 0.0 **** 0.06
12338 H 29.781489815969877 92.3874538949143 34.596680054721276 H 0.0 **** 0.06
12339 H 31.457681705110502 92.80523551630904 35.026421626639205 H 0.0 **** 0.06
12340 H 31.059737491469832 92.3284040568575 33.35855783285672 H 0.0 **** 0.06
12341 C 79.09930155638256 82.92338635050311 35.68175933726826 C 0.0 **** -0.24
12342 H 79.16008648153763 82.65756349960097 36.73757278308328 H 0.0 **** 0.06
12343 H 80.04175248948025 82.67581224743216 35.19110467552967 H 0.0 **** 0.06
12344 H 78.91027390154659 83.99242415805006 35.586863340064355 H 0.0 **** 0.06
12345 H 78.28808513902862 82.3668454648928 35.21355567115585 H 0.0 **** 0.06
12346 C 68.91092960244129 13.474194050519287 22.088974411320436 C 0.0 **** -0.24
12347 H 68.41852528034269 12.872444519222338 22.853357887043416 H 0.0 **** 0.06
12348 H 69.49376060302191 14.262072569165479 22.566043620301315 H 0.0 **** 0.06
12349 H 68.15913418945786 13.920725877975329 21.43873252381627 H 0.0 **** 0.06
12350 H 69.57234324631273 12.839355948522698 21.498271252206564 H 0.0 **** 0.06
12351 C 15.518436729003618 96.97538670976928 60.39833067904479 C 0.0 **** -0.24
12352 H 15.152436267986399 97.71294512339489 61.113314510765775 H 0.0 **** 0.06
12353 H 15.400276989342775 97.36107446597885 59.385997351203144 H 0.0 **** 0.06
12354 H 14.948448279984007 96.0520345613287 60.505976407576725 H 0.0 **** 0.06
12355 H 16.572416609372322 96.77639030701403 60.59166303003582 H 0.0 **** 0.06
12356 C 111.37875755894552 23.943324435489473 75.6376376287547 C 0.0 **** -0.24
12357 H 110.75779549171502 24.68597149973101 75.13513976082774 H 0.0 **** 0.06
12358 H 111.98136738231794 23.41498966989505 74.89830320397101 H 0.0 **** 0.06
12359 H 110.7410037928257 23.231762401304167 76.16249684742354 H 0.0 **** 0.06
12360 H 112.03367197982634 24.44142196449056 76.35218958112787 H 0.0 **** 0.06
12361 C 43.44663762311329 74.09188337636772 103.04984106999464 C 0.0 **** -0.24
12362 H 42.38286613251331 74.21557714020145 102.84376653879877 H 0.0 **** 0.06
12363 H 43.57946345074961 73.75093540108708 104.07682226493813 H 0.0 **** 0.06
12364 H 43.955400797626844 75.04590601941999 102.9136817331705 H 0.0 **** 0.06
12365 H 43.865828625741294 73.35490322287029 102.36517567866804 H 0.0 **** 0.06
12366 C 34.10126683726258 3.5163138309214617 110.68357656293468 C 0.0 **** -0.24
12367 H 34.99875167124429 3.7359594857619243 110.10339774672522 H 0.0 **** 0.06
12368 H 33.80772353675854 2.479236018710111 110.51807559884544 H 0.0 **** 0.06
12369 H 33.2950699361342 4.177749227238593 110.36874446074754 H 0.0 **** 0.06
12370 H 34.30773755385078 3.6714316248190926 111.74222846199187 H 0.0 **** 0.06
12371 C 44.087618163185034 57.70918100420088 80.60228765614204 C 0.0 **** -0.24
12372 H 43.135169921978836 58.03278294463207 80.18370595359738 H 0.0 **** 0.06
12373 H 44.893724294121036 58.310254784146885 80.17940600282904 H 0.0 **** 0.06
12374 H 44.252854687366614 56.65912674397928 80.36017087364294 H 0.0 **** 0.06
12375 H 44.07005135719612 57.833948522625086 81.68493812482453 H 0.0 **** 0.06
12376 C 13.667645491682332 56.826461608217016 99.3694298425456 C 0.0 **** -0.24
12377 H 12.638301886870984 56.8525996905949 99.01192164731546 H 0.0 **** 0.06
12378 H 13.912369724253814 55.81565230495761 99.69877963900794 H 0.0 **** 0.06
12379 H 13.779269827467175 57.517757629155085 100.20457855504316 H 0.0 **** 0.06
12380 H 14.3402412217605 57.1188654779308 98.56338672949062 H 0.0 **** 0.06
12381 C 21.986984091308805 16.358516101559292 9.369005244038743 C 0.0 **** -0.24
12382 H 21.71694970249945 15.45825685149202 9.921350518578336 H 0.0 **** 0.06
12383 H 21.100839101758712 16.97626481619567 9.224751553325596 H 0.0 **** 0.06
12384 H 22.398666310376893 16.080287406493717 8.399488849153514 H 0.0 **** 0.06
12385 H 22.733125860783744 16.919473616560918 9.932929682318555 H 0.0 **** 0.06
12386 C 34.44404054558058 66.49724697353633 68.33359174852248 C 0.0 **** -0.24
12387 H 33.389810450340434 66.77377152243292 68.34091559442393 H 0.0 **** 0.06
12388 H 34.57020094295086 65.53474929771556 68.82925528503742 H 0.0 **** 0.06
12389 H 35.02294496468508 67.25708950654294 68.8590178563619 H 0.0 **** 0.06
12390 H 34.792768039819606 66.42342659534023 67.30298594584173 H 0.0 **** 0.06
12391 C 34.436614366316164 2.1656496355693307 27.350230676635988 C 0.0 **** -0.24
12392 H 35.40194377071485 2.5628953850097176 27.66681499318716 H 0.0 **** 0.06
12393 H 33.72855182316137 2.233399706397181 28.17628875239552 H 0.0 **** 0.06
12394 H 34.55354020283083 1.1230153442406259 27.05431571339264 H 0.0 **** 0.06
12395 H 34.066356370248805 2.7443789262706755 26.50407703376888 H 0.0 **** 0.06
12396 C 54.71767395923123 102.60161380681649 41.90779625751236 C 0.0 **** -0.24
12397 H 54.236279338665696 102.33225228657815 40.96740793845561 H 0.0 **** 0.06
12398 H 54.69053167406164 103.68510550169708 42.032149515895526 H 0.0 **** 0.06
12399 H 55.75303962843385 102.26229938493339 41.89562357106229 H 0.0 **** 0.06
12400 H 54.18967417311517 102.12725529094874 42.73481244429087 H 0.0 **** 0.06
12401 C 48.279543135715166 101.88398214668575 101.7370732617164 C 0.0 **** -0.24
12402 H 48.614772551586405 101.37352758550179 100.83441722138565 H 0.0 **** 0.06
12403 H 48.280328426574926 101.18220104613152 102.57303045437072 H 0.0 **** 0.06
12404 H 47.2707362297714 102.2667647728178 101.58498245807863 H 0.0 **** 0.06
12405 H 48.95412614376756 102.71174514563634 101.95757677032549 H 0.0 **** 0.06
12406 C 12.325529574525916 104.28594151760004 6.001095109924705 C 0.0 **** -0.24
12407 H 11.495996247504024 104.10272788854667 6.684093498814974 H 0.0 **** 0.06
12408 H 13.18881203142945 103.69723314985663 6.313095894521496 H 0.0 **** 0.06
12409 H 12.58273719188034 105.34484539207256 6.017869277867476 H 0.0 **** 0.06
12410 H 12.03421143160395 103.99749880403465 4.990975746865985 H 0.0 **** 0.06
12411 C 38.5691244499788 35.81174651559842 35.83675330607292 C 0.0 **** -0.24
12412 H 39.6461726481582 35.737740362839894 35.98564525532498 H 0.0 **** 0.06
12413 H 38.06921098515181 35.83268180646086 36.80514052813653 H 0.0 **** 0.06
12414 H 38.222070440869686 34.94971746378218 35.26692613396632 H 0.0 **** 0.06
12415 H 38.34007095926978 36.72545606241469 35.28919246369357 H 0.0 **** 0.06
12416 C 16.762359378098097 28.078380344924255 83.41030482675498 C 0.0 **** -0.24
12417 H 16.77082678534748 27.011611314091112 83.18706348760753 H 0.0 **** 0.06
12418 H 16.48660542427504 28.23001921473326 84.45428568281952 H 0.0 **** 0.06
12419 H 16.03764141348168 28.577769813043176 82.76634002178349 H 0.0 **** 0.06
12420 H 17.753810990380288 28.494378112572292 83.23190888347187 H 0.0 **** 0.06
12421 C 62.874729312911036 98.08826187844414 85.76059211173308 C 0.0 **** -0.24
12422 H 63.39326629330605 97.34084391338641 85.1614383244374 H 0.0 **** 0.06
12423 H 61.88202779761995 97.71938513747955 86.0216616682169 H 0.0 **** 0.06
12424 H 62.77983740228665 99.01063961257924 85.18833922998022 H 0.0 **** 0.06
12425 H 63.44153528715531 98.28172641976357 86.67178423129528 H 0.0 **** 0.06
12426 C 93.23086962719603 59.2760698335936 44.13347217669606 C 0.0 **** -0.24
12427 H 93.98422001823096 60.06092392528651 44.18869647659776 H 0.0 **** 0.06
12428 H 92.25937817987048 59.68476869640569 44.41277527326608 H 0.0 **** 0.06
12429 H 93.4965796273022 58.468752647791426 44.816111716738625 H 0.0 **** 0.06
12430 H 93.18390431571237 58.889544174284914 43.11470781502893 H 0.0 **** 0.06
12431 C 112.83983307256267 22.42659364314015 20.9588301473894 C 0.0 **** -0.24
12432 H 112.29810122439245 22.534223760338254 20.01909085610451 H 0.0 **** 0.06
12433 H 112.31749099640815 21.71590339566875 21.60062824477723 H 0.0 **** 0.06
12434 H 112.89452076593064 23.39434962626426 21.458229017712686 H 0.0 **** 0.06
12435 H 113.84742888578808 22.063236476879563 20.757321330456364 H 0.0 **** 0.06
12436 C 86.78938672324807 63.82585763467818 34.71226712028553 C 0.0 **** -0.24
12437 H 87.59802167887835 63.16980997039908 34.389111467346396 H 0.0 **** 0.06
12438 H 87.1434561644574 64.85602865712198 34.73201554870823 H 0.0 **** 0.06
12439 H 86.46186698101064 63.534153042366235 35.71027655658928 H 0.0 **** 0.06
12440 H 85.95359601325595 63.74130187036719 34.01740756194971 H 0.0 **** 0.06
12441 C 38.68643098193294 49.81361838461754 89.59885527610896 C 0.0 **** -0.24
12442 H 38.81773206964904 48.73345686479048 89.66352125371947 H 0.0 **** 0.06
12443 H 38.40638064207272 50.08508017625152 88.58061222014902 H 0.0 **** 0.06
12444 H 39.6206595754029 50.309174471129936 89.86334096897559 H 0.0 **** 0.06
12445 H 37.90187811987701 50.12638854484641 90.28789969004657 H 0.0 **** 0.06
12446 C 4.305178260315458 72.29387252942729 32.91256142156506 C 0.0 **** -0.24
12447 H 5.042345703743209 72.66644025627988 33.62349319873043 H 0.0 **** 0.06
12448 H 4.140501447175964 71.23018138176803 33.083763772812105 H 0.0 **** 0.06
12449 H 4.671815214203335 72.44632862735088 31.897012257636362 H 0.0 **** 0.06
12450 H 3.3673047632744897 72.833013011683 33.045525344254344 H 0.0 **** 0.06
12451 C 39.72908324952786 33.74023481801499 88.3292339130061 C 0.0 **** -0.24
12452 H 40.76265145809225 33.64464107179092 87.99485803480653 H 0.0 **** 0.06
12453 H 39.28580794671825 32.74965690602403 88.4253531591877 H 0.0 **** 0.06
12454 H 39.1646455114697 34.32365953623866 87.6023768706703 H 0.0 **** 0.06
12455 H 39.70619916850791 34.24371566838667 89.29562612701716 H 0.0 **** 0.06
12456 C 39.54222915704078 103.93673633525984 117.58560542890709 C 0.0 **** -0.24
12457 H 40.470223938763056 103.46266265066714 117.90325983398249 H 0.0 **** 0.06
12458 H 39.21240590794952 103.49545688795476 116.6447341939017 H 0.0 **** 0.06
12459 H 39.70922497070465 105.0055257502971 117.44702249368065 H 0.0 **** 0.06
12460 H 38.77722191847931 103.78468968307212 118.34761354100714 H 0.0 **** 0.06
12461 C 23.02750855284043 47.14355680534001 33.779883281854666 C 0.0 **** -0.24
12462 H 22.71534323531381 46.160515398987854 33.42815619503275 H 0.0 **** 0.06
12463 H 24.004914422868183 47.38576778143154 33.3629850216391 H 0.0 **** 0.06
12464 H 23.08729226932101 47.13738945750319 34.86812334138887 H 0.0 **** 0.06
12465 H 22.300769647582968 47.89079542097349 33.460315424418795 H 0.0 **** 0.06
12466 C 78.65061038034531 5.194707965716077 47.60261993687057 C 0.0 **** -0.24
12467 H 79.25903263267705 5.815778554610816 46.945717192030635 H 0.0 **** 0.06
12468 H 78.99838641995598 5.304473446341348 48.630657892197135 H 0.0 **** 0.06
12469 H 78.736381437924 4.151448491405617 47.29873087197835 H 0.0 **** 0.06
12470 H 77.60840588915761 5.507363357495379 47.53631769222024 H 0.0 **** 0.06
12471 C 46.85601857670281 39.53595372464312 113.40425176177183 C 0.0 **** -0.24
12472 H 47.14073956065661 40.58657013311486 113.45368501015594 H 0.0 **** 0.06
12473 H 45.82159381000176 39.45435053728497 113.07040465048794 H 0.0 **** 0.06
12474 H 46.956588153545994 39.085577332839534 114.39229907787575 H 0.0 **** 0.06
12475 H 47.50768201477129 39.01617542268278 112.70116648127208 H 0.0 **** 0.06
12476 C 104.447632679088 49.674413413005624 35.99033115218214 C 0.0 **** -0.24
12477 H 105.31083891044875 50.22151048297093 35.61190501579324 H 0.0 **** 0.06
12478 H 104.71005802439097 49.18544860902793 36.928541114319984 H 0.0 **** 0.06
12479 H 104.1454141443372 48.92234708387829 35.26055595009299 H 0.0 **** 0.06
12480 H 103.62308774446609 50.36763383228666 36.15827072865653 H 0.0 **** 0.06
12481 C 19.311585153483122 79.02100202379845 44.54784377050606 C 0.0 **** -0.24
12482 H 19.032988280301197 80.03554972365461 44.83196221322986 H 0.0 **** 0.06
12483 H 20.397623997433612 78.92436985796667 44.56086202730924 H 0.0 **** 0.06
12484 H 18.93967850325683 78.81007381608089 43.5445141216191 H 0.0 **** 0.06
12485 H 18.875169496021186 78.31355422313882 45.25261786612019 H 0.0 **** 0.06
12486 C 46.716976214376956 114.570792753803 115.28789694280893 C 0.0 **** -0.24
12487 H 46.10648855039443 113.98391799120415 114.60070958331448 H 0.0 **** 0.06
12488 H 47.64662618369351 114.85541844512935 114.794396425419 H 0.0 **** 0.06
12489 H 46.943052196124896 113.97450296861723 116.17136774509963 H 0.0 **** 0.06
12490 H 46.17249441782775 115.46678727616145 115.5837159426238 H 0.0 **** 0.06
12491 C 70.68538418803223 9.458846457646644 37.80897763827984 C 0.0 **** -0.24
12492 H 71.01530894320513 8.482131667533395 38.1622444151536 H 0.0 **** 0.06
12493 H 70.82438127951309 10.197181393649998 38.60016411226858 H 0.0 **** 0.06
12494 H 69.63130604763705 9.410884657458837 37.537834800560766 H 0.0 **** 0.06
12495 H 71.27229179519537 9.746604211155244 36.93663050893334 H 0.0 **** 0.06
12496 C 27.79356979317788 46.25403846939264 92.64519466887009 C 0.0 **** -0.24
12497 H 26.79388016161147 46.55449990410901 92.33064870261956 H 0.0 **** 0.06
12498 H 28.159064137398843 45.464494873030134 91.98830778037967 H 0.0 **** 0.06
12499 H 27.75596082259767 45.88490439548269 93.6708092433368 H 0.0 **** 0.06
12500 H 28.46393982594148 47.11133928808286 92.59206425517925 H 0.0 **** 0.06
12501 C 30.071668722839036 41.48271716519355 42.14810728273743 C 0.0 **** -0.24
12502 H 30.506191799055472 42.38225298170852 42.58414923090638 H 0.0 **** 0.06
12503 H 30.854815752325862 40.9011308937807 41.661021304668196 H 0.0 **** 0.06
12504 H 29.316976036113743 41.763746650293456 41.41293519413641 H 0.0 **** 0.06
12505 H 29.60886353414395 40.884850560659004 42.932391268051006 H 0.0 **** 0.06
12506 C 114.0301012371682 26.6095937456503 71.00015327633355 C 0.0 **** -0.24
12507 H 113.45102787611597 25.832291951560137 71.4985542418259 H 0.0 **** 0.06
12508 H 113.4194349456015 27.07783330902319 70.22852906117544 H 0.0 **** 0.06
12509 H 114.91643681349711 26.16642975039676 70.5446946434567 H 0.0 **** 0.06
12510 H 114.33375356141292 27.359945371825916 71.72948668231709 H 0.0 **** 0.06
12511 C 89.18818078161036 58.160477238895396 90.7251712873477 C 0.0 **** -0.24
12512 H 89.84440908890275 58.42376915212316 89.8950855092802 H 0.0 **** 0.06
12513 H 89.7076139296853 58.33534285690291 91.66731075921626 H 0.0 **** 0.06
12514 H 88.91497729774306 57.107558928794276 90.65073003660751 H 0.0 **** 0.06
12515 H 88.28865409639542 58.774008155706895 90.68558506115346 H 0.0 **** 0.06
12516 C 10.062037325548943 11.893829267113375 83.94411369092944 C 0.0 **** -0.24
12517 H 10.699584099869849 12.17035566323571 83.10433405582083 H 0.0 **** 0.06
12518 H 9.401745516775083 11.07861347151777 83.64602548222388 H 0.0 **** 0.06
12519 H 9.464554435046633 12.754140044864016 84.24484795700505 H 0.0 **** 0.06
12520 H 10.681626708870752 11.571855535649007 84.78003556369961 H 0.0 **** 0.06
12521 C 52.625891213814924 39.000404929841324 51.951694946702375 C 0.0 **** -0.24
12522 H 51.84838101418458 38.617120968915856 52.61252538285285 H 0.0 **** 0.06
12523 H 53.04344798899314 38.17980598671119 51.36875734193052 H 0.0 **** 0.06
12524 H 53.41371791468859 39.46108597098524 52.54772652289468 H 0.0 **** 0.06
12525 H 52.197402090189115 39.74403812698512 51.28010185514427 H 0.0 **** 0.06
12526 C 115.47502247625218 95.87616209074824 63.65646995579121 C 0.0 **** -0.24
12527 H 114.48704039396557 96.06289534404743 64.07872193630956 H 0.0 **** 0.06
12528 H 116.05726368881108 96.79722018196236 63.67289262692671 H 0.0 **** 0.06
12529 H 115.37109031632212 95.52957816500177 62.62937106759426 H 0.0 **** 0.06
12530 H 115.9841362952242 95.11381670338059 64.24761316969688 H 0.0 **** 0.06
12531 C 74.82138253244173 47.08172081438556 56.36769784172964 C 0.0 **** -0.24
12532 H 75.25320468690373 47.273479145289684 55.385831307069566 H 0.0 **** 0.06
12533 H 75.31947437550124 46.22416740654799 56.821515334053515 H 0.0 **** 0.06
12534 H 73.75721738806956 46.87121567921767 56.26210100675337 H 0.0 **** 0.06
12535 H 74.95769212749684 47.958411188535734 57.00056214540081 H 0.0 **** 0.06
12536 C 64.78397056562545 98.36578464482466 11.75798357711508 C 0.0 **** -0.24
12537 H 65.09506959525618 99.36630057992278 11.457510905527052 H 0.0 **** 0.06
12538 H 63.69513338829995 98.31812355613192 11.78812704800633 H 0.0 **** 0.06
12539 H 65.1855326646828 98.14187352485385 12.745980655274842 H 0.0 **** 0.06
12540 H 65.16017797616223 97.63707447570548 11.038599703414892 H 0.0 **** 0.06
12541 C 81.94324917475149 113.49588643757336 86.37410290022527 C 0.0 **** -0.24
12542 H 82.13712831833817 114.47474298536778 85.93419680352753 H 0.0 **** 0.06
12543 H 81.00240508460621 113.1049352364297 85.98701103515236 H 0.0 **** 0.06
12544 H 81.8797834920016 113.59084126812714 87.45757656837011 H 0.0 **** 0.06
12545 H 82.75446730228597 112.8152647213352 86.1153099145871 H 0.0 **** 0.06
12546 C 88.62691826243932 16.08262140674007 4.715841347878442 C 0.0 **** -0.24
12547 H 88.29901479033336 16.15839294160162 3.679127041540422 H 0.0 **** 0.06
12548 H 87.75886128334497 16.120878220820025 5.374164279604612 H 0.0 **** 0.06
12549 H 89.29654028849751 16.91067540058579 4.946760063075592 H 0.0 **** 0.06
12550 H 89.15174859002948 15.138246601815656 4.862101247568788 H 0.0 **** 0.06
12551 C 71.39878238996397 35.43678558652195 59.231156742341476 C 0.0 **** -0.24
12552 H 71.37742528509585 34.569835078654705 58.5703153851864 H 0.0 **** 0.06
12553 H 72.39241448220918 35.53501273885746 59.6687927589712 H 0.0 **** 0.06
12554 H 70.6620873582196 35.30661000031438 60.023813861440395 H 0.0 **** 0.06
12555 H 71.16230251752091 36.33399064708203 58.65939813839308 H 0.0 **** 0.06
12556 C 90.14865034338123 78.09399803189152 67.69510308258774 C 0.0 **** -0.24
12557 H 90.52514052436868 79.10357432145443 67.53426044019389 H 0.0 **** 0.06
12558 H 90.1053977635091 77.8876925965784 68.76425967416355 H 0.0 **** 0.06
12559 H 90.81519274014704 77.37758384665639 67.21351446461085 H 0.0 **** 0.06
12560 H 89.15001783073606 78.00603748980078 67.26651627529739 H 0.0 **** 0.06
12561 C 59.94587823781731 40.41658378411273 49.90678937975153 C 0.0 **** -0.24
12562 H 59.609465003588866 39.754648404379395 50.70579335595028 H 0.0 **** 0.06
12563 H 60.537480961500734 41.2278773566581 50.33257290047017 H 0.0 **** 0.06
12564 H 59.079727559057886 40.83013770442432 49.390194057850124 H 0.0 **** 0.06
12565 H 60.55611308422317 39.852709182131775 49.2016869758169 H 0.0 **** 0.06
12566 C 116.8821834400014 87.11618190888888 105.21228979331127 C 0.0 **** -0.24
12567 H 117.54955294028895 86.25519402432204 105.19005631138046 H 0.0 **** 0.06
12568 H 117.31663986103908 87.89597943576999 105.83814283473845 H 0.0 **** 0.06
12569 H 115.91668594820553 86.81817871484199 105.6198191769499 H 0.0 **** 0.06
12570 H 116.74672641426281 87.49610182665828 104.19921384716525 H 0.0 **** 0.06
12571 C 53.415986510728615 40.71710326159578 0.5447557674239079 C 0.0 **** -0.24
12572 H 53.406479163352614 39.869307560821824 -0.1413766676842272 H 0.0 **** 0.06
12573 H 53.782323743214675 40.3909404724661 1.5187421649662554 H 0.0 **** 0.06
12574 H 52.405297637964395 41.11120487266365 0.6490220950765035 H 0.0 **** 0.06
12575 H 54.07078142472815 41.49471129362993 0.1511977018312507 H 0.0 **** 0.06
12576 C 57.8264662297618 62.99511831290827 104.60414565689683 C 0.0 **** -0.24
12577 H 56.95901073023786 63.48112939922171 104.1572622644787 H 0.0 **** 0.06
12578 H 57.721801900318475 61.913346075752024 104.51832141451075 H 0.0 **** 0.06
12579 H 57.89550187223288 63.27184001425805 105.65680648895875 H 0.0 **** 0.06
12580 H 58.729555869773726 63.31573711019464 104.0849036603716 H 0.0 **** 0.06
12581 C 115.96339319612329 117.68987790679121 93.93462613164948 C 0.0 **** -0.24
12582 H 115.63921951561927 118.00679623861718 92.94351122945346 H 0.0 **** 0.06
12583 H 115.21117660980381 117.97151717439303 94.67102076763712 H 0.0 **** 0.06
12584 H 116.90958904562548 118.17308605708908 94.17863203233867 H 0.0 **** 0.06
12585 H 116.09561569949149 116.60768600544804 93.94450052420663 H 0.0 **** 0.06
12586 C 7.03477480105424 112.37660246809403 21.20887058227065 C 0.0 **** -0.24
12587 H 7.980370409069337 111.85648491261237 21.365900247555572 H 0.0 **** 0.06
12588 H 7.1545550101816815 113.11649580176082 20.418158206072533 H 0.0 **** 0.06
12589 H 6.73773099177194 112.8744526361335 22.13180326811468 H 0.0 **** 0.06
12590 H 6.26894406754279 111.65712297326425 20.921696373226567 H 0.0 **** 0.06
12591 C 6.408614805616054 17.060510124420006 48.595559729141684 C 0.0 **** -0.24
12592 H 5.581562342109322 17.406282299863904 47.97560942194076 H 0.0 **** 0.06
12593 H 6.943913331838289 16.265353440707955 48.07619576038337 H 0.0 **** 0.06
12594 H 6.020502387561436 16.680599361435924 49.54076930847438 H 0.0 **** 0.06
12595 H 7.088481160954871 17.88980539567237 48.78966442576811 H 0.0 **** 0.06
12596 C 95.48625541883018 45.154035551964405 35.002289870179595 C 0.0 **** -0.24
12597 H 95.63801112194176 46.18667926118421 34.68681436756502 H 0.0 **** 0.06
12598 H 94.42002901364435 44.927098126589584 35.000792848901625 H 0.0 **** 0.06
12599 H 95.88514798207689 45.0202155941028 36.008412418152204 H 0.0 **** 0.06
12600 H 96.00277575447069 44.48406023709141 34.314348420900714 H 0.0 **** 0.06
12601 C 35.488183053109466 65.45458398178366 0.07098713093888875 C 0.0 **** -0.24
12602 H 35.993913519868926 66.28607325641022 0.5628589713388408 H 0.0 **** 0.06
12603 H 35.90122607500133 64.51299618359204 0.4328385522633198 H 0.0 **** 0.06
12604 H 35.63699292270857 65.52585879618675 -1.00736309398971 H 0.0 **** 0.06
12605 H 34.422089269406015 65.49460294979431 0.29445098763659416 H 0.0 **** 0.06
12606 C 35.51929919465829 60.71957402196557 38.966772346236326 C 0.0 **** -0.24
12607 H 34.480136172450045 60.394484743565755 39.021102508456465 H 0.0 **** 0.06
12608 H 36.17572576121876 59.86794835481882 39.1486913462731 H 0.0 **** 0.06
12609 H 35.700390077162155 61.485463829998736 39.72100007811417 H 0.0 **** 0.06
12610 H 35.72044161744171 61.1297069902964 37.97742144439894 H 0.0 **** 0.06
12611 C 9.314837740128034 9.102663001589306 26.677070386639627 C 0.0 **** -0.24
12612 H 9.495932584782448 9.44585958740251 25.658303803387184 H 0.0 **** 0.06
12613 H 9.545744425348325 8.03941605314435 26.74925523577491 H 0.0 **** 0.06
12614 H 8.26933431825135 9.26670426451463 26.934629164309058 H 0.0 **** 0.06
12615 H 9.950477607934207 9.659852082908515 27.366285837775933 H 0.0 **** 0.06
12616 C 18.513821694593407 42.86523404505013 102.3784245194787 C 0.0 **** -0.24
12617 H 18.076889738707635 43.540433195959565 101.6426384455641 H 0.0 **** 0.06
12618 H 17.84398607596686 42.77862082883556 103.23415636116201 H 0.0 **** 0.06
12619 H 19.474813335558405 43.260276634323546 102.70697733595847 H 0.0 **** 0.06
12620 H 18.65915680180587 41.882452170929696 101.9288823963978 H 0.0 **** 0.06
12621 C 111.82302746869027 61.11823009664931 79.75913526800076 C 0.0 **** -0.24
12622 H 112.37207988584797 61.60154194190693 80.5678866096977 H 0.0 **** 0.06
12623 H 110.88722355568966 60.71487799472578 80.14656101829527 H 0.0 **** 0.06
12624 H 112.42449517731787 60.3083404558638 79.34535515602516 H 0.0 **** 0.06
12625 H 111.60965572121411 61.84729231719672 78.97830028754154 H 0.0 **** 0.06
12626 C 60.967738049544835 92.08390549755507 94.86962700104874 C 0.0 **** -0.24
12627 H 60.015985813855394 92.58983278551864 95.02754707645423 H 0.0 **** 0.06
12628 H 61.360622881459534 91.74204199682316 95.82779478172176 H 0.0 **** 0.06
12629 H 61.67503192282109 92.77534343504675 94.41213000825294 H 0.0 **** 0.06
12630 H 60.81958814386837 91.22759286297651 94.21155188597598 H 0.0 **** 0.06
12631 C 17.133506180622078 48.75009485044248 50.062418548810456 C 0.0 **** -0.24
12632 H 17.182590356643374 49.815641253941685 50.28472492100252 H 0.0 **** 0.06
12633 H 17.01903158357004 48.60834281732114 48.987281089478074 H 0.0 **** 0.06
12634 H 16.281428901452983 48.31018223574234 50.5795681466696 H 0.0 **** 0.06
12635 H 18.05097388082197 48.26621309476455 50.39810003809137 H 0.0 **** 0.06
12636 C 36.187977744600005 46.45909677214513 55.93986618941733 C 0.0 **** -0.24
12637 H 36.2205107804603 45.48475474380814 56.42704455675192 H 0.0 **** 0.06
12638 H 36.94056163754698 47.111962773263485 56.38272403928539 H 0.0 **** 0.06
12639 H 35.20011161313454 46.899576762650895 56.075215590833864 H 0.0 **** 0.06
12640 H 36.39076625631412 46.34069975639795 54.87610237385556 H 0.0 **** 0.06
12641 C 75.74698227462079 14.838873714104107 59.86874600499444 C 0.0 **** -0.24
12642 H 75.98261494595272 14.727522835193419 58.81018622078532 H 0.0 **** 0.06
12643 H 74.78729763693457 15.34456036873674 59.975211819140235 H 0.0 **** 0.06
12644 H 76.52420088298652 15.428935578352267 60.353353826746535 H 0.0 **** 0.06
12645 H 75.69397698169769 13.855233800115112 60.334134509245764 H 0.0 **** 0.06
12646 C 49.67900436424475 109.28266067517029 92.81745398223421 C 0.0 **** -0.24
12647 H 48.87774085827684 108.62122562590079 92.48879761827715 H 0.0 **** 0.06
12648 H 49.3077675809098 110.3066955292416 92.86850781910954 H 0.0 **** 0.06
12649 H 50.50581749206711 109.23079599949324 92.10870176336496 H 0.0 **** 0.06
12650 H 50.02541260168948 108.97140683791147 93.80270822446334 H 0.0 **** 0.06
12651 C 74.62919234221931 74.28285272749503 80.71172484193943 C 0.0 **** -0.24
12652 H 73.61191836395756 74.10930834741245 81.0629051113005 H 0.0 **** 0.06
12653 H 75.24305598471597 74.6404737132799 81.53827019231574 H 0.0 **** 0.06
12654 H 74.6160613599452 75.0310543170169 79.91809606927146 H 0.0 **** 0.06
12655 H 75.0442541611063 73.35198355758914 80.32543112051411 H 0.0 **** 0.06
12656 C 99.19792216526602 24.432254909713237 6.243164363170905 C 0.0 **** -0.24
12657 H 98.68488432502505 23.820579030583673 6.984864656972405 H 0.0 **** 0.06
12658 H 100.09354860102775 24.867714238857673 6.686443100666509 H 0.0 **** 0.06
12659 H 98.53457516399882 25.228918191354076 5.907685763621885 H 0.0 **** 0.06
12660 H 99.47873039570234 23.81183852321243 5.391428559090656 H 0.0 **** 0.06
12661 C 49.04567841910864 90.06554501344377 77.8494258087477 C 0.0 **** -0.24
12662 H 49.70940188502661 90.09441692969656 78.71389800376875 H 0.0 **** 0.06
12663 H 48.71627421545733 89.03967211640906 77.67859444082524 H 0.0 **** 0.06
12664 H 49.57789269482538 90.42893088480565 76.97075795405064 H 0.0 **** 0.06
12665 H 48.17871595484641 90.69965852159709 78.03737997624282 H 0.0 **** 0.06
12666 C 39.87719282332498 63.278198753596 0.41437322665406384 C 0.0 **** -0.24
12667 H 39.361744209438584 63.13013492378525 1.3642313738245946 H 0.0 **** 0.06
12668 H 39.193952991080366 63.733392266817134 -0.30245014894285305 H 0.0 **** 0.06
12669 H 40.21686867271051 62.31607036671929 0.032890899770649185 H 0.0 **** 0.06
12670 H 40.73523128632698 63.932894270815524 0.5658140622935974 H 0.0 **** 0.06
12671 C 80.74881093435616 56.49488863430296 18.861957661570365 C 0.0 **** -0.24
12672 H 79.68695224937233 56.287992141712884 18.99089360556312 H 0.0 **** 0.06
12673 H 81.32996679552807 55.80793258778326 19.47771643398467 H 0.0 **** 0.06
12674 H 80.95911224407948 57.52086002446935 19.162897180872797 H 0.0 **** 0.06
12675 H 81.01951600461135 56.36080130775829 17.81431508665323 H 0.0 **** 0.06
12676 C 48.3272530322821 103.82495586551033 41.613220933213654 C 0.0 **** -0.24
12677 H 47.405699952531165 103.67630209550993 41.05021688304686 H 0.0 **** 0.06
12678 H 49.13499269443588 104.08068611345186 40.92647620104384 H 0.0 **** 0.06
12679 H 48.579660602465594 102.90876652854121 42.14597417666158 H 0.0 **** 0.06
12680 H 48.18906476594884 104.6356749817283 42.32909601307978 H 0.0 **** 0.06
12681 C 70.59371462145941 93.58691607407616 54.63944027493051 C 0.0 **** -0.24
12682 H 70.22756653948736 92.61222173746444 54.9616003104295 H 0.0 **** 0.06
12683 H 69.74929715717093 94.21852056155024 54.3615886077755 H 0.0 **** 0.06
12684 H 71.2528408089625 93.46226273610284 53.779934707423934 H 0.0 **** 0.06
12685 H 71.1444303043159 94.05504701311997 55.45578902033418 H 0.0 **** 0.06
12686 C 21.783026583925476 97.70818537159909 66.6293576646222 C 0.0 **** -0.24
12687 H 22.190410039920607 97.71300750094898 67.64017120537878 H 0.0 **** 0.06
12688 H 22.453913222844648 98.25495631800666 65.96600008611148 H 0.0 **** 0.06
12689 H 20.803243702163144 98.18419827961208 66.63019140137973 H 0.0 **** 0.06
12690 H 21.68718649118574 96.67923291149879 66.28149256194632 H 0.0 **** 0.06
12691 C 25.305205479068604 72.32894463818272 92.0936905196395 C 0.0 **** -0.24
12692 H 24.903459789774672 71.67162620772643 92.86506622180394 H 0.0 **** 0.06
12693 H 25.143934043178348 73.36782113069282 92.3825049249291 H 0.0 **** 0.06
12694 H 24.799461372078504 72.13106281409407 91.14908202959626 H 0.0 **** 0.06
12695 H 26.373352754605378 72.14489850484404 91.97997611107948 H 0.0 **** 0.06
12696 C 108.8004099649774 93.01225377555159 18.212254768163234 C 0.0 **** -0.24
12697 H 108.58335625185344 93.74409203370956 17.434519602666683 H 0.0 **** 0.06
12698 H 109.48165485894731 92.25693876735818 17.819484801605995 H 0.0 **** 0.06
12699 H 107.87304552742768 92.53592348317099 18.530582004003065 H 0.0 **** 0.06
12700 H 109.2626722550259 93.51179278180348 19.06240816711633 H 0.0 **** 0.06
12701 C 68.98878246195065 41.30053240811557 39.05828145296289 C 0.0 **** -0.24
12702 H 69.2931515023972 40.47323938460076 38.41628817066629 H 0.0 **** 0.06
12703 H 68.12347166831873 41.79963177728348 38.622731699247254 H 0.0 **** 0.06
12704 H 69.81168907077799 42.01055202863316 39.14832309583619 H 0.0 **** 0.06
12705 H 68.72949133898376 40.91780393380216 40.04559022964219 H 0.0 **** 0.06
12706 C 39.58837739045447 29.66410555673879 85.002013564463 C 0.0 **** -0.24
12707 H 39.37132574765053 28.679178046668476 84.58661971556486 H 0.0 **** 0.06
12708 H 40.635941644268655 29.908914237679923 84.8253205004778 H 0.0 **** 0.06
12709 H 39.392899850040806 29.657257372507196 86.0740103759025 H 0.0 **** 0.06
12710 H 38.95421547825174 30.408207582191203 84.52009613011325 H 0.0 **** 0.06
12711 C 71.55777432984644 5.515860938631519 5.623300371754999 C 0.0 **** -0.24
12712 H 70.81875158467403 6.312186140826498 5.5402758587296645 H 0.0 **** 0.06
12713 H 71.60752564173305 5.172944357380473 6.657075798485174 H 0.0 **** 0.06
12714 H 72.53415791884225 5.892084904364552 5.316983184945155 H 0.0 **** 0.06
12715 H 71.27033126297363 4.684584851732694 4.978431236432744 H 0.0 **** 0.06
12716 C 20.001328829851246 75.8438867922975 76.01471777694371 C 0.0 **** -0.24
12717 H 19.811772853304603 76.06236189547172 74.9633254676628 H 0.0 **** 0.06
12718 H 19.78163480861889 74.79410485242914 76.2121514477821 H 0.0 **** 0.06
12719 H 19.36311620233198 76.47234295927677 76.63562601472574 H 0.0 **** 0.06
12720 H 21.046964933949823 76.04739041557536 76.24547951009328 H 0.0 **** 0.06
12721 C 22.141935082133557 54.083215947947735 49.128049642288374 C 0.0 **** -0.24
12722 H 22.184685735191863 54.39157171380592 48.08324693497654 H 0.0 **** 0.06
12723 H 21.10072027175184 54.01280228004657 49.44388068282353 H 0.0 **** 0.06
12724 H 22.65972466903449 54.81823738561636 49.74481786286756 H 0.0 **** 0.06
12725 H 22.622487639283662 53.11162060017671 49.240589677066396 H 0.0 **** 0.06
12726 C 80.94681228094885 14.585163041331725 91.37530561008325 C 0.0 **** -0.24
12727 H 80.88299358480288 15.047781347660305 92.36047873102433 H 0.0 **** 0.06
12728 H 80.45464154701602 13.613129093390114 91.39796641873261 H 0.0 **** 0.06
12729 H 81.99387905194783 14.456529258379987 91.10245573986606 H 0.0 **** 0.06
12730 H 80.45629593537353 15.224415302356817 90.64143449471038 H 0.0 **** 0.06
12731 C 93.45586095524425 91.93755674749502 56.7437613622366 C 0.0 **** -0.24
12732 H 92.52561673002438 92.35595559566673 56.357831669444295 H 0.0 **** 0.06
12733 H 93.53979818740584 90.89512950954168 56.43562406194437 H 0.0 **** 0.06
12734 H 93.4564732017289 91.99757889391537 57.832194891364935 H 0.0 **** 0.06
12735 H 94.29933563056821 92.50347212127215 56.34874134954646 H 0.0 **** 0.06
12736 C 0.591414125696275 110.27293640025971 38.83878170000639 C 0.0 **** -0.24
12737 H -0.37853960439539946 109.83688382146079 38.6008458939844 H 0.0 **** 0.06
12738 H 0.7635100950266178 110.2093059972334 39.91313951150909 H 0.0 **** 0.06
12739 H 0.6061572289910657 111.3180094026626 38.529077579883094 H 0.0 **** 0.06
12740 H 1.3745287831626456 109.727546379682 38.312063814648965 H 0.0 **** 0.06
12741 C 23.09450534677319 16.705871486625256 57.69345793401823 C 0.0 **** -0.24
12742 H 22.969334648885628 16.351788661193737 58.71641207852039 H 0.0 **** 0.06
12743 H 22.879826632015245 15.892451784182398 56.999393033528264 H 0.0 **** 0.06
12744 H 24.119343895447997 17.04575759354526 57.5497295187061 H 0.0 **** 0.06
12745 H 22.40765704316411 17.532389711012144 57.50887827052799 H 0.0 **** 0.06
12746 C 39.51969285519223 27.805585276646326 100.41455266742119 C 0.0 **** -0.24
12747 H 40.086546803564374 27.346799971044874 99.60461180737852 H 0.0 **** 0.06
12748 H 39.0224922203287 28.703606068812064 100.04659776572083 H 0.0 **** 0.06
12749 H 40.19596234672126 28.07036546187669 101.22644767966 H 0.0 **** 0.06
12750 H 38.77343783838954 27.10065843976264 100.77911829003264 H 0.0 **** 0.06
12751 C 72.88583064149111 6.190993946470627 100.67549999526801 C 0.0 **** -0.24
12752 H 72.6660975648077 5.592920184463253 99.7911354110283 H 0.0 **** 0.06
12753 H 73.77736771380177 5.79874644446889 101.16710374617747 H 0.0 **** 0.06
12754 H 72.04125425053329 6.145277961334813 101.36271998367889 H 0.0 **** 0.06
12755 H 73.05986567952004 7.225598185245872 100.379877866633 H 0.0 **** 0.06
12756 C 114.44145475269951 51.263471747399706 27.698711236977218 C 0.0 **** -0.24
12757 H 113.47444136375432 50.991638611882365 28.12169399161794 H 0.0 **** 0.06
12758 H 114.28948566296229 51.86279789308031 26.800311430335682 H 0.0 **** 0.06
12759 H 114.99320813752792 50.358609148158735 27.44337720931985 H 0.0 **** 0.06
12760 H 115.0081442479429 51.84154240704095 28.428996063525958 H 0.0 **** 0.06
12761 C 78.20187899374017 65.98343290100581 96.24166735458897 C 0.0 **** -0.24
12762 H 78.8512750393433 66.69350732817745 95.72889284534503 H 0.0 **** 0.06
12763 H 77.71602775812957 66.47780007483206 97.08317330919346 H 0.0 **** 0.06
12764 H 78.79547828041407 65.145004221271 96.60554753179241 H 0.0 **** 0.06
12765 H 77.44439218825227 65.61805355915544 95.54836205605608 H 0.0 **** 0.06
12766 C 5.718523708695642 52.479925589007024 31.23737505479204 C 0.0 **** -0.24
12767 H 4.678533399626474 52.463420249733105 30.911842746552054 H 0.0 **** 0.06
12768 H 5.792884091338891 52.04382256454855 32.23476935785777 H 0.0 **** 0.06
12769 H 6.075535230110674 53.50938361073416 31.26240524747618 H 0.0 **** 0.06
12770 H 6.32643604856878 51.90114633702369 30.541816467825527 H 0.0 **** 0.06
12771 C 16.290841729681382 117.09257143060606 20.836493235421585 C 0.0 **** -0.24
12772 H 15.299516280466115 116.64613212910788 20.754521220887625 H 0.0 **** 0.06
12773 H 16.668726410406812 117.32333331758767 19.83943716387887 H 0.0 **** 0.06
12774 H 16.96516659318204 116.39085008440725 21.32707216071998 H 0.0 **** 0.06
12775 H 16.22914850750796 118.00828529129876 21.4233591159026 H 0.0 **** 0.06
12776 C 78.14547496463109 78.07945142980006 5.305487155351784 C 0.0 **** -0.24
12777 H 78.94151623916576 78.79157600730574 5.521994475663405 H 0.0 **** 0.06
12778 H 78.52189216012442 77.30808446090214 4.632297904416532 H 0.0 **** 0.06
12779 H 77.31173751331204 78.5989340996309 4.834574098167764 H 0.0 **** 0.06
12780 H 77.80894490883924 77.6185258200251 6.233936750557007 H 0.0 **** 0.06
12781 C 4.591763931428517 6.859832355188303 16.31576029316038 C 0.0 **** -0.24
12782 H 4.887631865475072 6.089231245370399 15.604398484224888 H 0.0 **** 0.06
12783 H 4.756896757368963 7.84337325159953 15.87499156613464 H 0.0 **** 0.06
12784 H 5.188131086845814 6.76398016537712 17.223675049205738 H 0.0 **** 0.06
12785 H 3.5356699426604763 6.743345960167289 16.55985043675858 H 0.0 **** 0.06
12786 C 17.129615293182397 92.63629802418842 68.1996290716761 C 0.0 **** -0.24
12787 H 17.98504291146645 93.25158913976662 68.4771159316494 H 0.0 **** 0.06
12788 H 17.432193647637433 91.9142601736126 67.44124510083253 H 0.0 **** 0.06
12789 H 16.339428342605146 93.27207055958672 67.80115398643864 H 0.0 **** 0.06
12790 H 16.761392133608098 92.10850321413369 69.07956823589296 H 0.0 **** 0.06
12791 C 110.64117342475947 74.10650383292696 66.51485900729097 C 0.0 **** -0.24
12792 H 111.06081691618343 73.991592149061 67.51426393774037 H 0.0 **** 0.06
12793 H 111.4217003393401 73.94057213176578 65.77187716705478 H 0.0 **** 0.06
12794 H 110.239605259705 75.11376859356824 66.40251889460222 H 0.0 **** 0.06
12795 H 109.841792883301 73.37903084753367 66.3713131352566 H 0.0 **** 0.06
12796 C 28.209526589413336 40.12747147326215 115.25948155697233 C 0.0 **** -0.24
12797 H 28.345471489159316 39.89857669072494 114.2028393805993 H 0.0 **** 0.06
12798 H 28.807712606997086 40.999874404032965 115.52207853028528 H 0.0 **** 0.06
12799 H 28.527172346467445 39.27490190263484 115.85911046235537 H 0.0 **** 0.06
12800 H 27.157223157156054 40.33610265039687 115.45265788195763 H 0.0 **** 0.06
12801 C 69.3707942444666 115.05565273718076 103.92264672802858 C 0.0 **** -0.24
12802 H 69.29157021218344 116.11818458217033 103.69667970511921 H 0.0 **** 0.06
12803 H 68.48445643439462 114.5389345351781 103.55365866185451 H 0.0 **** 0.06
12804 H 69.44868940347075 114.91818821628215 105.00180681982178 H 0.0 **** 0.06
12805 H 70.25816216484873 114.64612612675188 103.43916586550728 H 0.0 **** 0.06
12806 C 25.38945349152265 38.066242596313316 55.06502132440723 C 0.0 **** -0.24
12807 H 26.142048984430595 38.556438526768574 54.44623005877912 H 0.0 **** 0.06
12808 H 25.50362165250114 36.98514106595212 54.986786603731055 H 0.0 **** 0.06
12809 H 24.395007599951455 38.35325792580818 54.723018183771664 H 0.0 **** 0.06
12810 H 25.519513475420112 38.37171527762982 56.10269292261574 H 0.0 **** 0.06
12811 C 59.08825705531643 87.07219508510494 113.09918604715696 C 0.0 **** -0.24
12812 H 60.13720010900988 86.92446644962683 113.35654436432709 H 0.0 **** 0.06
12813 H 58.5274502170233 87.33384424083008 113.99699395121725 H 0.0 **** 0.06
12814 H 58.686348155051036 86.15233515400567 112.67443493022162 H 0.0 **** 0.06
12815 H 59.00364799642011 87.87828364187715 112.37060379680884 H 0.0 **** 0.06
12816 C 40.81603186602369 2.887578804133426 95.25278733537397 C 0.0 **** -0.24
12817 H 40.309106942771336 3.8518050418334013 95.26437957358098 H 0.0 **** 0.06
12818 H 41.103220841503195 2.615849928010846 96.26934553502798 H 0.0 **** 0.06
12819 H 41.706708893522574 2.9527708798414523 94.62842930284461 H 0.0 **** 0.06
12820 H 40.14388578766503 2.1294478506164154 94.84958920172136 H 0.0 **** 0.06
12821 C 64.61623717424831 42.99900773644926 55.347193955913724 C 0.0 **** -0.24
12822 H 65.41861601868791 42.3041190048379 55.10341476636691 H 0.0 **** 0.06
12823 H 63.669761597989556 42.46033211732711 55.39169252030152 H 0.0 **** 0.06
12824 H 64.55859548443425 43.77117774958083 54.580305143019075 H 0.0 **** 0.06
12825 H 64.81717456817594 43.461321062180815 56.31408028485737 H 0.0 **** 0.06
12826 C 56.86459624573632 57.151661782462156 6.130290005766341 C 0.0 **** -0.24
12827 H 56.37697080420264 56.5184493440122 6.872546092433339 H 0.0 **** 0.06
12828 H 56.85506136785395 56.64881193064525 5.162689496207761 H 0.0 **** 0.06
12829 H 57.894008964054876 57.338584858523205 6.4326137840161834 H 0.0 **** 0.06
12830 H 56.330457237517436 58.09813018717696 6.052755559342884 H 0.0 **** 0.06
12831 C 86.71147305978701 101.80668766828722 59.57574509269153 C 0.0 **** -0.24
12832 H 85.9146436934266 102.51980405622436 59.36638535300575 H 0.0 **** 0.06
12833 H 86.99341790635447 101.2968198809977 58.65313755851671 H 0.0 **** 0.06
12834 H 86.36237412208848 101.07423500767726 60.30415407789774 H 0.0 **** 0.06
12835 H 87.57614414365892 102.33450877988378 59.97740207255254 H 0.0 **** 0.06
12836 C 83.8608794586793 28.623759775053266 29.81340398908268 C 0.0 **** -0.24
12837 H 83.71803355329544 28.71791566989903 30.890420864696303 H 0.0 **** 0.06
12838 H 83.14193715211223 29.25769261146653 29.295591652131343 H 0.0 **** 0.06
12839 H 83.71068092142002 27.586105703386366 29.516397321113246 H 0.0 **** 0.06
12840 H 84.87313642582066 28.93319918026326 29.553637470677153 H 0.0 **** 0.06
12841 C 68.09238561052126 20.674958903500652 80.81822588550602 C 0.0 **** -0.24
12842 H 68.96257396686073 20.583753771651942 81.46918478389148 H 0.0 **** 0.06
12843 H 68.36969307434273 20.40227002068977 79.80039885606251 H 0.0 **** 0.06
12844 H 67.73350095798858 21.703807709891464 80.83455007753406 H 0.0 **** 0.06
12845 H 67.30470654367537 20.01063648176165 81.1718894303553 H 0.0 **** 0.06
12846 C 7.608485774819542 32.35016112273138 67.2398414726506 C 0.0 **** -0.24
12847 H 7.821022906031374 33.188758217923436 66.57645058293235 H 0.0 **** 0.06
12848 H 6.778178844112745 32.607880118689735 67.89658178099478 H 0.0 **** 0.06
12849 H 8.492200687486843 32.12963890621177 67.83947597410872 H 0.0 **** 0.06
12850 H 7.3453674142031105 31.474693686900054 66.64590706073409 H 0.0 **** 0.06
12851 C 66.4008908482698 0.846006088942076 99.46269800515518 C 0.0 **** -0.24
12852 H 65.67111825675954 1.4201108403506169 100.03239896843908 H 0.0 **** 0.06
12853 H 67.20823551616911 0.5273785980457291 100.12322943360101 H 0.0 **** 0.06
12854 H 66.80798009847942 1.4652889643928546 98.66416525027489 H 0.0 **** 0.06
12855 H 65.91671100508646 -0.03056887644545725 99.03257155590737 H 0.0 **** 0.06
12856 C 77.23042111805722 71.07009460408148 69.04951929396287 C 0.0 **** -0.24
12857 H 76.92517796348926 70.51247368280508 68.16466278897545 H 0.0 **** 0.06
12858 H 77.82138565094405 70.42468551707083 69.70037617290194 H 0.0 **** 0.06
12859 H 76.34643934520832 71.41383556619502 69.58534563041778 H 0.0 **** 0.06
12860 H 77.83004631542698 71.92929289705381 68.74805201947825 H 0.0 **** 0.06
12861 C 65.88926175057927 35.44080089170902 76.1559249353582 C 0.0 **** -0.24
12862 H 65.5062650792135 35.59818602966138 77.16411193452959 H 0.0 **** 0.06
12863 H 66.55068611597397 36.26504936572127 75.88629015061673 H 0.0 **** 0.06
12864 H 65.05630295716833 35.399508106526355 75.45377669668471 H 0.0 **** 0.06
12865 H 66.4428384125315 34.50245908359514 76.11982635499803 H 0.0 **** 0.06
12866 C 85.14477206675411 83.80968683379257 117.33310878863551 C 0.0 **** -0.24
12867 H 84.86771271989542 83.43357829324648 116.3492053650848 H 0.0 **** 0.06
12868 H 84.59592050106446 84.72877493772265 117.53957092483387 H 0.0 **** 0.06
12869 H 86.21551543251653 84.01242852184942 117.35580289132616 H 0.0 **** 0.06
12870 H 84.90025110739512 83.06253570492402 118.08954674676266 H 0.0 **** 0.06
12871 C 28.378937327905135 7.940139467605235 2.2627527100474936 C 0.0 **** -0.24
12872 H 28.075814810373316 7.345369534331439 3.1241010733913015 H 0.0 **** 0.06
12873 H 29.426862668537836 7.7441960924081314 2.036623944960951 H 0.0 **** 0.06
12874 H 28.24664189374471 8.998584546637062 2.4870549681660634 H 0.0 **** 0.06
12875 H 27.764637172392668 7.6728204523125925 1.4024460891593264 H 0.0 **** 0.06
12876 C 90.76109474825387 87.63284029733018 92.14739256685897 C 0.0 **** -0.24
12877 H 90.10902864295736 88.17826577179213 92.82966188270285 H 0.0 **** 0.06
12878 H 90.1802223411315 87.28242858487042 91.29409340454285 H 0.0 **** 0.06
12879 H 91.19672852792564 86.77939358351856 92.66578085184634 H 0.0 **** 0.06
12880 H 91.55708792794073 88.29179169364352 91.80013977389817 H 0.0 **** 0.06
12881 C 109.59870307758891 0.9067809391068327 117.65197916268816 C 0.0 **** -0.24
12882 H 108.8214910350197 0.26240225351974544 117.24196443342154 H 0.0 **** 0.06
12883 H 110.57789923845871 0.507118662947553 117.38677629929921 H 0.0 **** 0.06
12884 H 109.50388805260857 0.9452069162468764 118.73701745940393 H 0.0 **** 0.06
12885 H 109.49238000456603 1.9103304233584364 117.24229355389961 H 0.0 **** 0.06
12886 C 91.22106363322746 86.77691867896885 39.99662366106607 C 0.0 **** -0.24
12887 H 91.3169700518612 87.77835576113577 40.41847246271855 H 0.0 **** 0.06
12888 H 90.89207200369106 86.84995100166029 38.959910889455585 H 0.0 **** 0.06
12889 H 90.48934158078194 86.21035951035213 40.57228510453573 H 0.0 **** 0.06
12890 H 92.1863153179585 86.27221917454577 40.03740557100482 H 0.0 **** 0.06
12891 C 60.49888209020542 15.20457219403805 56.15749279309756 C 0.0 **** -0.24
12892 H 60.56721075684437 16.285829430765396 56.04277364528525 H 0.0 **** 0.06
12893 H 61.12020975466698 14.888203159371592 56.99616151106005 H 0.0 **** 0.06
12894 H 60.84582938969702 14.719970817465946 55.245429425783925 H 0.0 **** 0.06
12895 H 59.46243999350106 14.923542160006775 56.34625590253114 H 0.0 **** 0.06
12896 C 16.382763658722865 88.66959680210385 1.7644567119359635 C 0.0 **** -0.24
12897 H 15.635033093873403 88.65019697557463 2.5564094468003304 H 0.0 **** 0.06
12898 H 17.192136115653852 87.9814675093078 2.0109723222540197 H 0.0 **** 0.06
12899 H 16.78227101201918 89.6793679384563 1.6663764354137243 H 0.0 **** 0.06
12900 H 15.9235669416733 88.36815548215787 0.8233291771831546 H 0.0 **** 0.06
12901 C 112.1976304441395 54.36722987922674 93.26429002552828 C 0.0 **** -0.24
12902 H 113.20199541713323 54.66786378140455 93.5634519513408 H 0.0 **** 0.06
12903 H 112.12465512880458 54.38002306156751 92.17623599187633 H 0.0 **** 0.06
12904 H 111.4702030088834 55.060223994382206 93.68522227970502 H 0.0 **** 0.06
12905 H 111.99643639265179 53.36115059400326 93.63045517352285 H 0.0 **** 0.06
12906 C 114.6394316309107 47.37192013388069 25.907808858676475 C 0.0 **** -0.24
12907 H 114.80275950697373 47.86228684138483 26.867751094890792 H 0.0 **** 0.06
12908 H 115.57376360778778 46.9288352744019 25.56251455165716 H 0.0 **** 0.06
12909 H 114.29369545002274 48.10607929085328 25.179453554805036 H 0.0 **** 0.06
12910 H 113.88685009696894 46.591961902327235 26.023055354348116 H 0.0 **** 0.06
12911 C 7.471039946343296 2.0433487393164 12.693422510588022 C 0.0 **** -0.24
12912 H 7.237794064881484 2.3883141605421656 13.700511761202662 H 0.0 **** 0.06
12913 H 6.99727782087038 2.702962782098382 11.965248472047975 H 0.0 **** 0.06
12914 H 7.097755211390165 1.02773205136927 12.562038273505863 H 0.0 **** 0.06
12915 H 8.551187348875374 2.055366426594844 12.54690033945647 H 0.0 **** 0.06
12916 C 116.57450229173324 13.489264034678712 15.177623087074352 C 0.0 **** -0.24
12917 H 116.90418892379004 14.529053543347203 15.179404761332357 H 0.0 **** 0.06
12918 H 115.95372296506027 13.307216926308513 14.300447826430307 H 0.0 **** 0.06
12919 H 115.99740513693634 13.290378496602358 16.08079471991662 H 0.0 **** 0.06
12920 H 117.44497583386003 12.833312832748561 15.150430451307955 H 0.0 **** 0.06
12921 C 41.08513521406766 27.732384678763722 51.726573801902475 C 0.0 **** -0.24
12922 H 42.08151295001548 28.071113218931856 51.44195128558441 H 0.0 **** 0.06
12923 H 40.91955177151422 26.72677414205468 51.338268226054154 H 0.0 **** 0.06
12924 H 40.33982061044162 28.41053243632976 51.31140719845485 H 0.0 **** 0.06
12925 H 41.00185176246757 27.721620764269474 52.81268728198273 H 0.0 **** 0.06
12926 C 70.75884120627845 51.58617293311391 31.434895548414623 C 0.0 **** -0.24
12927 H 70.30333618686191 51.64846452297965 32.42271256002315 H 0.0 **** 0.06
12928 H 70.80926579494195 52.58157736174632 30.994387984859046 H 0.0 **** 0.06
12929 H 70.1582263981521 50.93621864314785 30.798439068047458 H 0.0 **** 0.06
12930 H 71.7651335323111 51.17723083469992 31.524492820881868 H 0.0 **** 0.06
12931 C 10.090407477733322 6.6751832031533525 104.78651612191499 C 0.0 **** -0.24
12932 H 10.73112824123531 5.918136486452852 105.23777845475843 H 0.0 **** 0.06
12933 H 10.281460168854224 7.640798158497844 105.25605448162284 H 0.0 **** 0.06
12934 H 9.045588424764816 6.400819663464588 104.93183081533465 H 0.0 **** 0.06
12935 H 10.30281644281439 6.741002780586783 103.71913810937178 H 0.0 **** 0.06
12936 C 61.09301802919803 5.833991701761633 79.14569674281537 C 0.0 **** -0.24
12937 H 61.95751062830542 5.864753144745691 78.48244652281568 H 0.0 **** 0.06
12938 H 60.179213283277726 5.823775601071688 78.55063695302175 H 0.0 **** 0.06
12939 H 61.09826203212038 6.713193802133361 79.78949461563951 H 0.0 **** 0.06
12940 H 61.13726730269743 4.934251064245103 79.75880628830055 H 0.0 **** 0.06
12941 C 70.27663649964941 115.58948450287008 57.25701826026906 C 0.0 **** -0.24
12942 H 70.72128098791688 116.5741600679341 57.116558954193245 H 0.0 **** 0.06
12943 H 71.02797333679172 114.90494319080902 57.65120950977089 H 0.0 **** 0.06
12944 H 69.91057154595185 115.21697958368749 56.300477052302476 H 0.0 **** 0.06
12945 H 69.44633896590955 115.6625289252982 57.960460633476934 H 0.0 **** 0.06
12946 C 66.39034491668707 2.0762062994878505 9.297862044109586 C 0.0 **** -0.24
12947 H 65.56877816858162 1.500459339388355 9.723516902418908 H 0.0 **** 0.06
12948 H 66.0792415491874 2.500794479707146 8.343215429275379 H 0.0 **** 0.06
12949 H 67.24992215415912 1.4237784761977377 9.1432286143771 H 0.0 **** 0.06
12950 H 66.66271714151165 2.880457115117972 9.981288385764962 H 0.0 **** 0.06
12951 C 69.84016826460893 18.763910161575183 20.71691134098998 C 0.0 **** -0.24
12952 H 70.16650220167068 18.200918241879123 19.84145149987795 H 0.0 **** 0.06
12953 H 69.13908225730364 19.54019272249846 20.408344592590524 H 0.0 **** 0.06
12954 H 70.70448258688305 19.223829091216118 21.1945375725485 H 0.0 **** 0.06
12955 H 69.35128999737793 18.089882427828115 21.4203345593962 H 0.0 **** 0.06
12956 C 11.300696864393132 76.04721251382819 2.2079201088179587 C 0.0 **** -0.24
12957 H 11.179357328520581 75.41949894861008 3.0904142637952106 H 0.0 **** 0.06
12958 H 10.354718517505063 76.53918398456477 1.9794782855131245 H 0.0 **** 0.06
12959 H 11.603067071580313 75.4306306628344 1.3618878368257867 H 0.0 **** 0.06
12960 H 12.06564453996674 76.79953645930357 2.399900049137827 H 0.0 **** 0.06
12961 C 12.606091331657197 30.31116567262626 60.78996916407931 C 0.0 **** -0.24
12962 H 11.868275432872835 31.109647101346695 60.711676922583024 H 0.0 **** 0.06
12963 H 13.175180109573375 30.249646651630485 59.8620440719383 H 0.0 **** 0.06
12964 H 12.09680262063894 29.363008369175418 60.96748933384251 H 0.0 **** 0.06
12965 H 13.282651537691635 30.521438070330646 61.61849218303291 H 0.0 **** 0.06
12966 C 113.21812979724987 81.20135655466711 0.9231140834200193 C 0.0 **** -0.24
12967 H 112.37517967476452 80.58661940234424 0.6081396895725373 H 0.0 **** 0.06
12968 H 114.08092788632626 80.98562743489973 0.29337132610072025 H 0.0 **** 0.06
12969 H 113.46087950078135 80.97900792610272 1.9624183037797955 H 0.0 **** 0.06
12970 H 112.95318913237384 82.25538873947531 0.8299514867255553 H 0.0 **** 0.06
12971 C 46.08121134026629 38.42137738415205 22.946026123798106 C 0.0 **** -0.24
12972 H 45.714505072566 37.76664200503828 22.155582794386902 H 0.0 **** 0.06
12973 H 45.34493255773668 39.2008608524647 23.14309380675641 H 0.0 **** 0.06
12974 H 47.01999781163357 38.878654033843475 22.633538373351087 H 0.0 **** 0.06
12975 H 46.24544797234677 37.83874963347077 23.852686381595646 H 0.0 **** 0.06
12976 C 5.3366145555671665 66.43257493689401 54.54994563043823 C 0.0 **** -0.24
12977 H 5.267248780620932 65.36987030998449 54.31631585599569 H 0.0 **** 0.06
12978 H 4.620713879386656 66.9856420398902 53.94126129765588 H 0.0 **** 0.06
12979 H 6.345611934349421 66.7855635176341 54.33550227312064 H 0.0 **** 0.06
12980 H 5.113928062475367 66.58789175068733 55.605637814740454 H 0.0 **** 0.06
12981 C 34.485977423059126 77.45593171671854 103.99166265070585 C 0.0 **** -0.24
12982 H 34.82696476721708 77.61971854812847 105.0141454630581 H 0.0 **** 0.06
12983 H 33.931732824421545 78.330202920061 103.64922667430952 H 0.0 **** 0.06
12984 H 33.83976915445544 76.57896188513521 103.9609978831179 H 0.0 **** 0.06
12985 H 35.34807899717066 77.29483792065813 103.34402751945206 H 0.0 **** 0.06
12986 C 117.02836588177013 80.49103430150322 0.670230055103918 C 0.0 **** -0.24
12987 H 116.10640962013301 80.8583390798126 1.1224716928612253 H 0.0 **** 0.06
12988 H 117.67051878140887 81.33444135048703 0.4189976985959749 H 0.0 **** 0.06
12989 H 116.7901290481432 79.93170652810585 -0.23433570097544631 H 0.0 **** 0.06
12990 H 117.54327511828717 79.83891090803968 1.375697365322475 H 0.0 **** 0.06
12991 C 17.609147068918674 69.35803613549155 103.18756742618785 C 0.0 **** -0.24
12992 H 18.36807180929722 70.12810719916936 103.32935748869366 H 0.0 **** 0.06
12993 H 16.957923022240294 69.32532549404365 104.06089657969866 H 0.0 **** 0.06
12994 H 18.094668340447072 68.3907586696541 103.0590335589435 H 0.0 **** 0.06
12995 H 17.01886199104962 69.58939707217655 102.30152106680416 H 0.0 **** 0.06
12996 C 40.586367162026335 58.392172216155984 3.743585353250765 C 0.0 **** -0.24
12997 H 40.27548558775038 57.75701258003082 2.9137007272216664 H 0.0 **** 0.06
12998 H 41.577019017602524 58.088276390105705 4.080798578602824 H 0.0 **** 0.06
12999 H 39.875955426205564 58.29246489733421 4.563558596609468 H 0.0 **** 0.06
13000 H 40.616682888040486 59.43095620958229 3.412556008618793 H 0.0 **** 0.06
13001 C 118.33131854552644 79.62606115416679 51.319185204153385 C 0.0 **** -0.24
13002 H 117.54927840334814 80.11949828831408 50.74335580699341 H 0.0 **** 0.06
13003 H 119.11816100236898 80.34345163220308 51.552957396520874 H 0.0 **** 0.06
13004 H 118.74924935706927 78.80573586882892 50.7350252298654 H 0.0 **** 0.06
13005 H 117.90871237142933 79.23499562693482 52.24458583743291 H 0.0 **** 0.06
13006 C 107.6026516865183 53.104981406662375 4.8841226697424105 C 0.0 **** -0.24
13007 H 107.2550094589559 53.61087730165394 5.784978267156561 H 0.0 **** 0.06
13008 H 108.49845926625426 53.6021427246242 4.511094502538668 H 0.0 **** 0.06
13009 H 106.82255226482906 53.14255284249265 4.123709062443737 H 0.0 **** 0.06
13010 H 107.83372938619516 52.06585444148337 5.116817256819573 H 0.0 **** 0.06
13011 C 107.26099065726419 78.77764638576747 48.35107473053435 C 0.0 **** -0.24
13012 H 106.73026679003078 78.25783158829998 47.55278381660003 H 0.0 **** 0.06
13013 H 107.29404930263533 79.84446316890251 48.13039706074602 H 0.0 **** 0.06
13014 H 108.27693347117886 78.38889808712864 48.42546269424716 H 0.0 **** 0.06
13015 H 106.74136479308856 78.61752639918947 49.296491675615016 H 0.0 **** 0.06
13016 C 37.83973696875438 22.795391593117238 10.753022906798673 C 0.0 **** -0.24
13017 H 37.070519266262295 22.85358495277714 11.523301587788453 H 0.0 **** 0.06
13018 H 38.354242341595125 23.754975270889098 10.681979961953456 H 0.0 **** 0.06
13019 H 37.37771618417918 22.55848941290774 9.794920778503382 H 0.0 **** 0.06
13020 H 38.55659340511181 22.017167004223754 11.014330944029123 H 0.0 **** 0.06
13021 C 100.25867353905437 51.23684964889705 9.846644405426446 C 0.0 **** -0.24
13022 H 100.8768912435169 50.66202172210109 10.53654825531629 H 0.0 **** 0.06
13023 H 99.33909531564359 50.68892574557253 9.64008719709517 H 0.0 **** 0.06
13024 H 100.80502194467985 51.39666059329582 8.91764742449763 H 0.0 **** 0.06
13025 H 100.01466414115342 52.20021229313204 10.29491488752899 H 0.0 **** 0.06
13026 C 5.018927905123052 57.08749266968126 66.08832253444999 C 0.0 **** -0.24
13027 H 5.233706082783057 57.56395618382117 67.04398111648317 H 0.0 **** 0.06
13028 H 5.668618417589789 56.22077744726227 65.96078189078787 H 0.0 **** 0.06
13029 H 5.195526132410244 57.79707825184497 65.27992786433401 H 0.0 **** 0.06
13030 H 3.976874546359717 56.76617667444514 66.06828554465602 H 0.0 **** 0.06
13031 C 59.28669741352422 24.468456307872245 66.187542160389 C 0.0 **** -0.24
13032 H 59.38900739410934 25.403305706216486 65.63751236878983 H 0.0 **** 0.06
13033 H 59.12882805268771 24.684526312844866 67.24491847841017 H 0.0 **** 0.06
13034 H 60.19520302622695 23.876631651838636 66.06888386082102 H 0.0 **** 0.06
13035 H 58.435164503192794 23.909366409178176 65.79890506271823 H 0.0 **** 0.06
13036 C 5.735370347281588 20.88560799118696 79.36973240540851 C 0.0 **** -0.24
13037 H 6.718816147203768 20.576180513246698 79.72394643661238 H 0.0 **** 0.06
13038 H 4.9801308303395615 20.194336567279578 79.74615340257054 H 0.0 **** 0.06
13039 H 5.7231938472494335 20.880269721441664 78.28022988055423 H 0.0 **** 0.06
13040 H 5.51910308965077 21.89125454258189 79.73139122597388 H 0.0 **** 0.06
13041 C 88.3790019336073 65.13137671629022 10.581564210366253 C 0.0 **** -0.24
13042 H 88.1829270405643 64.35683240597382 9.838707939139965 H 0.0 **** 0.06
13043 H 89.17657837487639 65.78316624173777 10.224323630431996 H 0.0 **** 0.06
13044 H 88.68261591117351 64.66561845694545 11.51957136197936 H 0.0 **** 0.06
13045 H 87.47410633333146 65.71709494786722 10.741881538836452 H 0.0 **** 0.06
13046 C 107.09526611237311 41.72775509527699 79.50701496231318 C 0.0 **** -0.24
13047 H 108.17278715799506 41.60394342285721 79.39354380818764 H 0.0 **** 0.06
13048 H 106.7110838435876 40.96703409864082 80.18568870416772 H 0.0 **** 0.06
13049 H 106.61349258183913 41.624957211064896 78.53426243602138 H 0.0 **** 0.06
13050 H 106.88484415748599 42.71706686897332 79.91368854381136 H 0.0 **** 0.06
13051 C 75.96790035002749 69.53316129668971 7.267646264502119 C 0.0 **** -0.24
13052 H 76.98801675013831 69.78227058989097 6.9757993084894 H 0.0 **** 0.06
13053 H 75.38174081803874 69.30478012997341 6.377297099253994 H 0.0 **** 0.06
13054 H 75.52197722860106 70.38070671161458 7.789211191935863 H 0.0 **** 0.06
13055 H 75.97985570027726 68.66630126893517 7.928321926140512 H 0.0 **** 0.06
13056 C 67.13236551768395 45.06917518277015 36.42966833033353 C 0.0 **** -0.24
13057 H 68.02591094255004 44.64749207007611 36.88980253603711 H 0.0 **** 0.06
13058 H 67.06252700162892 46.12859261466906 36.67672270936498 H 0.0 **** 0.06
13059 H 66.25126279587474 44.54799852186841 36.80571689868509 H 0.0 **** 0.06
13060 H 67.18981773267603 44.94984332931381 35.34757187312812 H 0.0 **** 0.06
13061 C 105.2682777450201 70.57524580136982 67.78157778277901 C 0.0 **** -0.24
13062 H 105.38590424637641 70.09816243969809 68.7535607711855 H 0.0 **** 0.06
13063 H 104.77981067151302 71.54198472181051 67.90749204663558 H 0.0 **** 0.06
13064 H 104.65784108575502 69.94149306227021 67.13772751923602 H 0.0 **** 0.06
13065 H 106.24771660666136 70.71883895454684 67.32599238431192 H 0.0 **** 0.06
13066 C 63.75445748175241 103.5669392691922 60.51167950682974 C 0.0 **** -0.24
13067 H 63.23820790083221 102.97963812932369 61.27147115370919 H 0.0 **** 0.06
13068 H 63.39435279404796 104.59536096633698 60.542273711070955 H 0.0 **** 0.06
13069 H 63.5569397136893 103.14175485457804 59.52697011169935 H 0.0 **** 0.06
13070 H 64.82611790740327 103.55030825882602 60.7067944337083 H 0.0 **** 0.06
13071 C 12.899677060914826 66.81637276041857 10.399162601546692 C 0.0 **** -0.24
13072 H 12.989840328076156 67.1986948381826 11.41528853258987 H 0.0 **** 0.06
13073 H 11.86004738003507 66.5603809871007 10.197586702755814 H 0.0 **** 0.06
13074 H 13.521673661957692 65.92775955182955 10.2891880926245 H 0.0 **** 0.06
13075 H 13.229089106890996 67.58013405898242 9.694381090133476 H 0.0 **** 0.06
13076 C 108.11812758954977 44.57556157618086 40.36166622757361 C 0.0 **** -0.24
13077 H 108.61563870606582 43.64412573022767 40.09020801220822 H 0.0 **** 0.06
13078 H 107.05316743396932 44.49597925505276 40.14013479604978 H 0.0 **** 0.06
13079 H 108.54864447924882 45.39653912522664 39.788197268088595 H 0.0 **** 0.06
13080 H 108.25519518031194 44.76385540364424 41.426412896543866 H 0.0 **** 0.06
13081 C 111.95966649120075 93.38776600770396 79.76866006494353 C 0.0 **** -0.24
13082 H 112.7290890897693 92.73226662698391 79.35995964598538 H 0.0 **** 0.06
13083 H 111.19596219574272 93.56647210362385 79.01084839373917 H 0.0 **** 0.06
13084 H 112.41014274296356 94.33634287828716 80.06200742911238 H 0.0 **** 0.06
13085 H 111.50538623418947 92.91556349201232 80.63914886015178 H 0.0 **** 0.06
13086 C 101.83025050329468 34.922660078136964 99.61932181225882 C 0.0 **** -0.24
13087 H 102.49690013139596 35.36138414231321 100.36115129800191 H 0.0 **** 0.06
13088 H 101.77414480653258 33.844610539579556 99.77430886346912 H 0.0 **** 0.06
13089 H 102.21430788518566 35.126973882829354 98.61995433297386 H 0.0 **** 0.06
13090 H 100.83606093814024 35.35686019341477 99.72228736467025 H 0.0 **** 0.06
13091 C 82.79689516410599 85.33976004109394 102.0654898073914 C 0.0 **** -0.24
13092 H 82.10587136880133 84.85946574314514 102.75792828511806 H 0.0 **** 0.06
13093 H 83.75147714773016 85.51169174865737 102.56425967312529 H 0.0 **** 0.06
13094 H 82.38022989544743 86.29293992105312 101.73994911612274 H 0.0 **** 0.06
13095 H 82.95000224444505 84.69494275152016 101.19982215519931 H 0.0 **** 0.06
13096 C 54.82893435426206 90.29034966411021 77.61195601528146 C 0.0 **** -0.24
13097 H 55.63592961300793 89.72208541403211 78.07566392699368 H 0.0 **** 0.06
13098 H 54.048933591790956 89.60679128007106 77.27857149401149 H 0.0 **** 0.06
13099 H 55.220212861675066 90.84186411391016 76.7565575341446 H 0.0 **** 0.06
13100 H 54.41476665790515 90.99030937328064 78.3368698227381 H 0.0 **** 0.06
13101 C 67.47087323582738 52.81231192092679 30.921219254695444 C 0.0 **** -0.24
13102 H 67.86830457649901 51.857128688812395 30.578696459567283 H 0.0 **** 0.06
13103 H 66.38384939024823 52.805811642696256 30.835828829905864 H 0.0 **** 0.06
13104 H 67.87869963579845 53.616059747203735 30.30873366995081 H 0.0 **** 0.06
13105 H 67.75236996703995 52.97054587988055 31.963302887409924 H 0.0 **** 0.06
13106 C 17.894359808756743 72.50287668156065 4.701613223771123 C 0.0 **** -0.24
13107 H 18.537457965693285 72.84521588952552 5.511970032975713 H 0.0 **** 0.06
13108 H 18.35165317935408 71.64175801273811 4.213878659147399 H 0.0 **** 0.06
13109 H 17.76603698555953 73.30593687610414 3.975851454170046 H 0.0 **** 0.06
13110 H 16.922291104420125 72.2185959478746 5.104752748791009 H 0.0 **** 0.06
13111 C 11.640573348399613 73.84086416821256 59.96848247710377 C 0.0 **** -0.24
13112 H 12.13817743486726 74.78292158687074 60.200237957544054 H 0.0 **** 0.06
13113 H 10.954929599963947 73.98730475573683 59.13381165510052 H 0.0 **** 0.06
13114 H 11.084231078632854 73.50000336021782 60.84144337990505 H 0.0 **** 0.06
13115 H 12.38768255884662 73.09316398406577 59.69968531909371 H 0.0 **** 0.06
13116 C 67.56456106246546 34.1593276178109 110.73270580305501 C 0.0 **** -0.24
13117 H 66.85231361542861 34.97348460261341 110.86650619345102 H 0.0 **** 0.06
13118 H 67.14503854506401 33.239376176855544 111.1402224151417 H 0.0 **** 0.06
13119 H 68.4912775684895 34.39948566665119 111.25416166449071 H 0.0 **** 0.06
13120 H 67.7683210978573 34.02678788288512 109.66996281456369 H 0.0 **** 0.06
13121 C 44.07628635251234 58.98531746284641 41.36020387083411 C 0.0 **** -0.24
13122 H 43.1633416734075 59.134715270909396 40.78414584473924 H 0.0 **** 0.06
13123 H 44.709494525155264 59.86850435223906 41.27212473342368 H 0.0 **** 0.06
13124 H 44.6089944462484 58.11548109217176 40.97516702038547 H 0.0 **** 0.06
13125 H 43.82274969523604 58.82183983709456 42.40710870646646 H 0.0 **** 0.06
13126 C 40.4326541691089 23.020074449819646 52.229161997326685 C 0.0 **** -0.24
13127 H 39.88404009897894 22.190983486002523 52.676100859175676 H 0.0 **** 0.06
13128 H 41.417736373246186 23.09366012705931 52.69028105760316 H 0.0 **** 0.06
13129 H 39.884868537997136 23.948022606597817 52.391052845587524 H 0.0 **** 0.06
13130 H 40.544455939466474 22.846581979773987 51.15792326753893 H 0.0 **** 0.06
13131 C 65.34509032718523 71.51409807236922 54.445837275343024 C 0.0 **** -0.24
13132 H 64.3199843898839 71.17970026202099 54.60422752257597 H 0.0 **** 0.06
13133 H 65.76963438045473 70.992090359363 53.58733220214103 H 0.0 **** 0.06
13134 H 65.93933519571334 71.29523789693911 55.333988124424565 H 0.0 **** 0.06
13135 H 65.35322067382543 72.58763282349528 54.25997295537147 H 0.0 **** 0.06
13136 C 93.09937581928853 69.70579946095418 74.64042977036388 C 0.0 **** -0.24
13137 H 93.81297148501542 69.60697702415118 75.45821268815553 H 0.0 **** 0.06
13138 H 92.7160708881542 68.7218599892582 74.37213151650849 H 0.0 **** 0.06
13139 H 93.59586583461248 70.15060274246528 73.77726214396489 H 0.0 **** 0.06
13140 H 92.27440351650552 70.34496288495825 74.95358521419485 H 0.0 **** 0.06
13141 C 43.95460590194671 106.11245811376031 10.486244288545208 C 0.0 **** -0.24
13142 H 44.71936088337989 106.43530604394144 11.192713400459184 H 0.0 **** 0.06
13143 H 44.36370217027843 106.12921152214813 9.47576362498171 H 0.0 **** 0.06
13144 H 43.09949894680676 106.78629552379141 10.544061577610478 H 0.0 **** 0.06
13145 H 43.63667558501635 105.09897411787395 10.733017732925873 H 0.0 **** 0.06
13146 C 88.66855745352484 56.60059541890871 94.8188921700989 C 0.0 **** -0.24
13147 H 89.13255735450619 56.44536648524587 95.79367610856875 H 0.0 **** 0.06
13148 H 88.57501361094205 55.642638646334774 94.30533588128577 H 0.0 **** 0.06
13149 H 89.28756510517101 57.272537063896436 94.22542233032476 H 0.0 **** 0.06
13150 H 87.67945130354954 57.03869310096184 94.95285866007725 H 0.0 **** 0.06
13151 C 12.796619264509587 36.29960420683491 44.85001650070154 C 0.0 **** -0.24
13152 H 12.885069245437165 37.38178419866543 44.75032356890799 H 0.0 **** 0.06
13153 H 12.511688943824254 36.052247736248276 45.87286550550044 H 0.0 **** 0.06
13154 H 13.753682883701345 35.834298237382356 44.61693695001489 H 0.0 **** 0.06
13155 H 12.035605075705291 35.9324638692163 44.16171865680175 H 0.0 **** 0.06
13156 C 107.74022993313221 107.16727164843843 18.92921471928196 C 0.0 **** -0.24
13157 H 108.31905169831191 107.43706655156828 19.812680427315456 H 0.0 **** 0.06
13158 H 108.20009009014066 107.61102266438687 18.045481549529597 H 0.0 **** 0.06
13159 H 106.72183290704248 107.53904105440262 19.035283032274208 H 0.0 **** 0.06
13160 H 107.72246054406872 106.08302084104972 18.82414837123366 H 0.0 **** 0.06
13161 C 118.68825244666145 87.72748873298852 2.8512584956745286 C 0.0 **** -0.24
13162 H 119.73063084224583 87.72942310756622 3.1687078028651285 H 0.0 **** 0.06
13163 H 118.47995292559165 86.81582293186418 2.291966710821356 H 0.0 **** 0.06
13164 H 118.50015262918735 88.59390344625561 2.216269014856252 H 0.0 **** 0.06
13165 H 118.04195044991042 87.77198835538587 3.7273857889309028 H 0.0 **** 0.06
13166 C 21.13609964249602 34.156032630182665 7.576672018080842 C 0.0 **** -0.24
13167 H 21.442036608631724 34.7001578368685 6.6830116167503775 H 0.0 **** 0.06
13168 H 21.939961345648754 34.18371049858035 8.312304309199135 H 0.0 **** 0.06
13169 H 20.918378864218596 33.12060688628736 7.313393072678309 H 0.0 **** 0.06
13170 H 20.24314300077762 34.618850931476345 7.9952256545273315 H 0.0 **** 0.06
13171 C 64.29935367010097 88.33224377652607 2.4240814713671366 C 0.0 **** -0.24
13172 H 63.43612103153532 88.78109123208657 2.9143557601324233 H 0.0 **** 0.06
13173 H 65.20838951512553 88.82969063131449 2.7618239986059407 H 0.0 **** 0.06
13174 H 64.20251123550062 88.44576233294202 1.343330909336645 H 0.0 **** 0.06
13175 H 64.35060454616402 87.27258404154469 2.6743796256453436 H 0.0 **** 0.06
13176 C 87.05817339068886 118.86935034273199 95.17722457224991 C 0.0 **** -0.24
13177 H 87.82088591802284 118.78625881251598 94.4029856128881 H 0.0 **** 0.06
13178 H 86.94558082056642 119.9156473005313 95.46508788349783 H 0.0 **** 0.06
13179 H 87.35763670337712 118.28405249919824 96.04674670578191 H 0.0 **** 0.06
13180 H 86.10906548289807 118.49298193538048 94.79592343701745 H 0.0 **** 0.06
13181 C 15.621579492732636 24.358530801735185 38.39691548990592 C 0.0 **** -0.24
13182 H 15.56374930054356 24.712318624546924 37.3679779976361 H 0.0 **** 0.06
13183 H 15.663898183307435 23.269057269353425 38.40558508180004 H 0.0 **** 0.06
13184 H 14.73964777013823 24.692516292237144 38.94553815518981 H 0.0 **** 0.06
13185 H 16.516694450059664 24.761533900638312 38.86993265957631 H 0.0 **** 0.06
13186 C 80.85193148552361 34.71506754161386 63.11476029607559 C 0.0 **** -0.24
13187 H 81.57313923771977 34.21603006377535 63.76112201860951 H 0.0 **** 0.06
13188 H 81.05733166877769 35.78551451533628 63.097450627501416 H 0.0 **** 0.06
13189 H 79.84469780931175 34.544206712502394 63.49418807969215 H 0.0 **** 0.06
13190 H 80.93125035381712 34.31386526564505 62.10431443949631 H 0.0 **** 0.06
13191 C 21.254233392253497 77.36992962109028 105.0984105382322 C 0.0 **** -0.24
13192 H 20.75204524843656 76.83825359055044 104.28998351310227 H 0.0 **** 0.06
13193 H 22.33193075264768 77.22880690548106 105.01314989158945 H 0.0 **** 0.06
13194 H 20.911657275040284 76.97974116016968 106.05751961423951 H 0.0 **** 0.06
13195 H 21.019393094433525 78.43264515047287 105.03528898449434 H 0.0 **** 0.06
13196 C 68.00769175125703 79.99761454802132 82.61904862090412 C 0.0 **** -0.24
13197 H 68.11710423497061 78.91314370009536 82.60046167184112 H 0.0 **** 0.06
13198 H 68.50965425802525 80.39850769601588 83.50048607381856 H 0.0 **** 0.06
13199 H 66.9487912846549 80.25445102722935 82.65576948926423 H 0.0 **** 0.06
13200 H 68.45473418145633 80.42299959040528 81.7211883126133 H 0.0 **** 0.06
13201 C 16.780166743450195 28.95208458562786 25.818872515785642 C 0.0 **** -0.24
13202 H 16.819208252630744 29.294815736058013 24.784904098971992 H 0.0 **** 0.06
13203 H 17.643370576457755 28.319612701840413 26.025262939045206 H 0.0 **** 0.06
13204 H 15.86412987198446 28.382142635849902 25.977973935086425 H 0.0 **** 0.06
13205 H 16.791627626113325 29.813369862940647 26.487364797580597 H 0.0 **** 0.06
13206 C 3.929789936665941 74.83378399540268 79.52771666601578 C 0.0 **** -0.24
13207 H 4.402431096802644 73.93466344309664 79.92329238092682 H 0.0 **** 0.06
13208 H 2.958055793399865 74.57638547312422 79.10407361395323 H 0.0 **** 0.06
13209 H 4.561952912033121 75.26451886047002 78.75130439759263 H 0.0 **** 0.06
13210 H 3.79594423474245 75.55772357875085 80.330783479981 H 0.0 **** 0.06
13211 C 38.99214465194984 19.42643585758978 96.08810485367667 C 0.0 **** -0.24
13212 H 39.26904100211138 19.640534844712562 95.0559679502278 H 0.0 **** 0.06
13213 H 37.97331795513844 19.766952812009777 96.26994234078981 H 0.0 **** 0.06
13214 H 39.67419183305921 19.945937329241133 96.76203994002768 H 0.0 **** 0.06
13215 H 39.0547818179036 18.35272102074896 96.26558897874474 H 0.0 **** 0.06
13216 C 10.49257713543119 52.26819833360409 99.3978112879116 C 0.0 **** -0.24
13217 H 10.563312068795469 51.43388881976287 98.69892441833716 H 0.0 **** 0.06
13218 H 11.127676392775328 53.084709882170074 99.05178167682044 H 0.0 **** 0.06
13219 H 10.821911967464786 51.94441788584638 100.3847790270907 H 0.0 **** 0.06
13220 H 9.459204164795125 52.609530268210136 99.45179587024057 H 0.0 **** 0.06
13221 C 108.99170980870883 97.45369912203603 20.650455967924845 C 0.0 **** -0.24
13222 H 108.83931717212894 98.3644423518679 20.071275664162616 H 0.0 **** 0.06
13223 H 108.99408861262671 97.69537859025795 21.71337645023749 H 0.0 **** 0.06
13224 H 109.94844814566261 97.00579370155637 20.37714806799617 H 0.0 **** 0.06
13225 H 108.18738843640114 96.7492760164321 20.439558458547214 H 0.0 **** 0.06
13226 C 9.064999225489728 37.28511670288009 51.45029199111232 C 0.0 **** -0.24
13227 H 9.318907582319085 37.67941475724018 50.466093744705205 H 0.0 **** 0.06
13228 H 9.973862577928287 36.953499605758736 51.95381573514971 H 0.0 **** 0.06
13229 H 8.382479715493801 36.443872878228945 51.33911921904684 H 0.0 **** 0.06
13230 H 8.586709963410783 38.06594286772457 52.0419815020068 H 0.0 **** 0.06
13231 C 36.53777079835786 5.261345060769839 86.45958978302656 C 0.0 **** -0.24
13232 H 35.814904229947174 5.636648436870264 87.18288901467761 H 0.0 **** 0.06
13233 H 37.1675930527454 6.082003990917576 86.11580288426111 H 0.0 **** 0.06
13234 H 36.01001127290866 4.827446842226626 85.61037498079426 H 0.0 **** 0.06
13235 H 37.15893413881067 4.497915759424384 86.92920818170404 H 0.0 **** 0.06
13236 C 73.89835782447179 75.16873886758356 59.9787200669013 C 0.0 **** -0.24
13237 H 73.97186542048888 74.12783456444615 60.29257734757505 H 0.0 **** 0.06
13238 H 72.9948199334134 75.30600942696253 59.385330146811384 H 0.0 **** 0.06
13239 H 74.77119678199989 75.43066422358862 59.37983870100538 H 0.0 **** 0.06
13240 H 73.85654097158346 75.81145637109046 60.858865629867125 H 0.0 **** 0.06
13241 C 84.66424938590887 47.08578557478771 20.981107157846253 C 0.0 **** -0.24
13242 H 83.96811654261563 46.695484989907754 20.23887533961596 H 0.0 **** 0.06
13243 H 85.34573802147534 47.79098011632709 20.504197806051536 H 0.0 **** 0.06
13244 H 85.23510228198231 46.26267533986592 21.41087463024064 H 0.0 **** 0.06
13245 H 84.10838632458555 47.593121754692476 21.769029599291343 H 0.0 **** 0.06
13246 C 107.23476077582569 25.865660817372344 111.53262650862234 C 0.0 **** -0.24
13247 H 107.31756887506128 25.642871391802956 112.59659233700563 H 0.0 **** 0.06
13248 H 106.18336663871321 25.983263333294246 111.26815978040156 H 0.0 **** 0.06
13249 H 107.66507878877508 25.04800337226908 110.95603898927902 H 0.0 **** 0.06
13250 H 107.77129131864365 26.788476795235283 111.31302871272158 H 0.0 **** 0.06
13251 C 30.884018524958094 101.79049291957944 76.74751379765064 C 0.0 **** -0.24
13252 H 31.67040827162947 101.48262255488277 76.05719382135908 H 0.0 **** 0.06
13253 H 31.04792396222848 101.31820223871927 77.71697869551323 H 0.0 **** 0.06
13254 H 29.915590096760695 101.48561802099022 76.3528010452047 H 0.0 **** 0.06
13255 H 30.905905360587155 102.87423741607097 76.86196641094764 H 0.0 **** 0.06
13256 C 41.869421260443204 76.1463847654087 50.51745998543319 C 0.0 **** -0.24
13257 H 41.23954395486791 76.87462786879541 50.00554183525816 H 0.0 **** 0.06
13258 H 42.83820813272146 76.59430739027223 50.73769818185616 H 0.0 **** 0.06
13259 H 42.00932170019706 75.27496709134815 49.87739303252562 H 0.0 **** 0.06
13260 H 41.38968397083292 75.84081138645101 51.447095178019254 H 0.0 **** 0.06
13261 C 71.20950271135499 36.36729190871873 6.32087156720894 C 0.0 **** -0.24
13262 H 71.8671592554631 36.781766342592135 5.556989792235072 H 0.0 **** 0.06
13263 H 71.1201886767164 35.290063770582094 6.176060708060561 H 0.0 **** 0.06
13264 H 70.22502931332278 36.827012085347775 6.240884141651151 H 0.0 **** 0.06
13265 H 71.62563657489 36.568793242212905 7.307922926468763 H 0.0 **** 0.06
13266 C 2.6922058482900155 60.58926078372451 61.33486125287243 C 0.0 **** -0.24
13267 H 1.942191954900693 60.925950873870306 60.619909191692955 H 0.0 **** 0.06
13268 H 2.3806840126026287 59.63804580943065 61.76808506556932 H 0.0 **** 0.06
13269 H 2.797638748069275 61.33128057594297 62.126567084949784 H 0.0 **** 0.06
13270 H 3.648159256624311 60.4612930963726 60.826208157950134 H 0.0 **** 0.06
13271 C 102.01748880826966 92.80074552250957 101.55626538874401 C 0.0 **** -0.24
13272 H 102.83048701938733 92.09476464942804 101.38450820532495 H 0.0 **** 0.06
13273 H 101.40422005908556 92.45224731723528 102.38755417129732 H 0.0 **** 0.06
13274 H 101.40554038458714 92.8744752545851 100.65745806611821 H 0.0 **** 0.06
13275 H 102.43198943148246 93.77931012235285 101.79568770538813 H 0.0 **** 0.06
13276 C 67.87439119419503 86.51530272969049 26.3417795891271 C 0.0 **** -0.24
13277 H 68.77095238863544 85.89940389723284 26.2724238835971 H 0.0 **** 0.06
13278 H 68.09671911135149 87.52268756423814 25.989460588786997 H 0.0 **** 0.06
13279 H 67.54221047698206 86.55837811391137 27.379542622310453 H 0.0 **** 0.06
13280 H 67.08584795863925 86.08012038000973 25.72680842570449 H 0.0 **** 0.06
13281 C 42.556163087818646 53.600469220307815 113.99190754538057 C 0.0 **** -0.24
13282 H 42.67815875676774 52.61862996291427 114.45090142808169 H 0.0 **** 0.06
13283 H 43.4392914919909 53.83554323845752 113.39816519914226 H 0.0 **** 0.06
13284 H 42.429923208361515 54.352439383605486 114.77051778669247 H 0.0 **** 0.06
13285 H 41.676336298070396 53.59323784817475 113.34811866202406 H 0.0 **** 0.06
13286 C 18.10457231709043 47.36612659699016 104.0136192726342 C 0.0 **** -0.24
13287 H 18.49723898221842 47.74945848300858 104.9550124320049 H 0.0 **** 0.06
13288 H 18.825435899775812 46.67452700662221 103.57516586170942 H 0.0 **** 0.06
13289 H 17.932764653103845 48.19475699009837 103.32630755786047 H 0.0 **** 0.06
13290 H 17.165900728836988 46.84474774804684 104.19717914990804 H 0.0 **** 0.06
13291 C 93.86484442034944 69.81437924338323 118.60378580552378 C 0.0 **** -0.24
13292 H 92.88792150817278 69.91666600167261 118.13124521054391 H 0.0 **** 0.06
13293 H 94.15564089618181 70.76751768088496 119.04478247596225 H 0.0 **** 0.06
13294 H 94.6003500115117 69.51996223218649 117.8550964687652 H 0.0 **** 0.06
13295 H 93.81392075242135 69.05298501884926 119.38168113592576 H 0.0 **** 0.06
13296 C 103.3976193114867 73.9310807261503 80.07855478458185 C 0.0 **** -0.24
13297 H 104.19271864776437 73.67019741036225 80.77731549759824 H 0.0 **** 0.06
13298 H 102.76658786009872 73.0593311475466 79.90509713390128 H 0.0 **** 0.06
13299 H 103.8362595013343 74.25639775014886 79.13499015340449 H 0.0 **** 0.06
13300 H 102.79638074412475 74.73789429537612 80.49807670093264 H 0.0 **** 0.06
13301 C 53.687246819686756 105.34463511260552 114.16979652620411 C 0.0 **** -0.24
13302 H 53.47887172735623 105.55022365225759 115.22036295299125 H 0.0 **** 0.06
13303 H 52.829003041542656 104.84267264626936 113.72214943559257 H 0.0 **** 0.06
13304 H 54.565340776234585 104.70397084384709 114.09179757077972 H 0.0 **** 0.06
13305 H 53.87318150113498 106.2828719632501 113.64656569141451 H 0.0 **** 0.06
13306 C 100.57952904472512 31.336569724768538 98.75066622545009 C 0.0 **** -0.24
13307 H 100.51721867488789 30.258280369709553 98.60085264669073 H 0.0 **** 0.06
13308 H 100.36923437909036 31.571013936781014 99.7945104068504 H 0.0 **** 0.06
13309 H 99.85038455377156 31.834453433839656 98.11129645269892 H 0.0 **** 0.06
13310 H 101.58159258173265 31.681371006589814 98.49526003561394 H 0.0 **** 0.06
13311 C 37.26978354172738 19.74614016107796 62.97524200703416 C 0.0 **** -0.24
13312 H 37.573222836137305 20.768168792958534 62.74930260382869 H 0.0 **** 0.06
13313 H 36.856354503715195 19.70587901959334 63.984058722953726 H 0.0 **** 0.06
13314 H 38.13431952840841 19.08721951849276 62.91060805674575 H 0.0 **** 0.06
13315 H 36.512826697572606 19.425907398149093 62.26005754162613 H 0.0 **** 0.06
13316 C 63.18719690723146 72.4316504547067 36.25332529443688 C 0.0 **** -0.24
13317 H 63.86791242868501 71.58035921344356 36.2813469775231 H 0.0 **** 0.06
13318 H 62.555945492223366 72.42041492693437 37.14198664508473 H 0.0 **** 0.06
13319 H 62.56188834812989 72.36659017971348 35.36226020006984 H 0.0 **** 0.06
13320 H 63.76323333969595 73.35650763513655 36.226477917999944 H 0.0 **** 0.06
13321 C 110.09177906144737 100.28978846949079 48.05534530058986 C 0.0 **** -0.24
13322 H 109.39341598170773 101.07808070336904 47.776896298065935 H 0.0 **** 0.06
13323 H 110.63900958738037 100.58895967592207 48.94982110547744 H 0.0 **** 0.06
13324 H 110.7935718428825 100.12134223141516 47.23818353108766 H 0.0 **** 0.06
13325 H 109.54111883381866 99.37077126725666 48.25648026772842 H 0.0 **** 0.06
13326 C 46.56403618460239 101.07713289014686 58.54397134288908 C 0.0 **** -0.24
13327 H 45.917132871754006 101.11315917735493 59.41998602648084 H 0.0 **** 0.06
13328 H 47.14186329605754 102.00016606249699 58.48077906019623 H 0.0 **** 0.06
13329 H 45.95395144497863 100.96847626706145 57.64701095133097 H 0.0 **** 0.06
13330 H 47.24218597050361 100.22814087366862 58.626699565813055 H 0.0 **** 0.06
13331 C 117.52545489597765 91.61676296177586 44.17477439068063 C 0.0 **** -0.24
13332 H 117.95953834953369 90.62506645942193 44.30453265975748 H 0.0 **** 0.06
13333 H 116.44412779000325 91.52845783020422 44.06526403120727 H 0.0 **** 0.06
13334 H 117.94435923488399 92.08244082011521 43.283405340020956 H 0.0 **** 0.06
13335 H 117.75359410568151 92.22945380854111 45.04703295697129 H 0.0 **** 0.06
13336 C 13.564551313694636 81.62420912342412 47.22378471070567 C 0.0 **** -0.24
13337 H 13.540263946314411 80.69434934019066 46.65657274895926 H 0.0 **** 0.06
13338 H 12.572357641071903 81.83048665136667 47.62612773865942 H 0.0 **** 0.06
13339 H 13.868173087354307 82.44116233924007 46.56987586549593 H 0.0 **** 0.06
13340 H 14.27685080370847 81.53129085273838 48.043256594115974 H 0.0 **** 0.06
13341 C 36.78533290795377 100.25288475835993 68.07593702948193 C 0.0 **** -0.24
13342 H 36.273416574755885 99.29132172668841 68.0514273585801 H 0.0 **** 0.06
13343 H 37.72062422593453 100.18157189488608 67.5215083639929 H 0.0 **** 0.06
13344 H 36.996612318599404 100.52611621489098 69.11089803735624 H 0.0 **** 0.06
13345 H 36.150072671808374 101.01448911073373 67.62210347245559 H 0.0 **** 0.06
13346 C 46.80795710644939 47.06973352054138 57.92310741130285 C 0.0 **** -0.24
13347 H 46.80952230513469 48.08721881725583 58.31273252709477 H 0.0 **** 0.06
13348 H 47.830104117227506 46.690296432981114 57.89561856380911 H 0.0 **** 0.06
13349 H 46.39251869579428 47.06734330950704 56.91524392871875 H 0.0 **** 0.06
13350 H 46.200881568968015 46.433943516079324 58.56759087328504 H 0.0 **** 0.06
13351 C 7.020769053021038 98.80594572003508 6.348381621347514 C 0.0 **** -0.24
13352 H 6.096483427043053 98.2278003704865 6.350956999114672 H 0.0 **** 0.06
13353 H 6.794846080873455 99.85158081522593 6.1404547116543 H 0.0 **** 0.06
13354 H 7.689081444442138 98.41858037403188 5.579131840656828 H 0.0 **** 0.06
13355 H 7.502376067504919 98.72449844376376 7.322574911426585 H 0.0 **** 0.06
13356 C 59.81662401421945 14.063289311856522 109.29399742498293 C 0.0 **** -0.24
13357 H 58.7578777858456 14.057034207115208 109.0339726268073 H 0.0 **** 0.06
13358 H 60.047880617262415 13.183729168756543 109.89518951817757 H 0.0 **** 0.06
13359 H 60.044608610326954 14.964134978908334 109.8648562097088 H 0.0 **** 0.06
13360 H 60.414818019033866 14.049949010365566 108.3831651075447 H 0.0 **** 0.06
13361 C 103.9421013625981 8.350775059850122 66.48822904135483 C 0.0 **** -0.24
13362 H 104.72550787864094 8.29427305717087 65.73298055401133 H 0.0 **** 0.06
13363 H 103.94056088468923 9.344807335767626 66.9356572946362 H 0.0 **** 0.06
13364 H 104.1277714061132 7.604366137304453 67.26048995433794 H 0.0 **** 0.06
13365 H 102.9753111001643 8.160312659009847 66.02369039637409 H 0.0 **** 0.06
13366 C 94.35498966156507 50.52656757897017 29.981439443063053 C 0.0 **** -0.24
13367 H 95.03924158663091 51.00038042518753 29.27836249461643 H 0.0 **** 0.06
13368 H 94.85326321450304 50.39616034130745 30.941858082863227 H 0.0 **** 0.06
13369 H 94.05241999037142 49.553073404801296 29.59341965558319 H 0.0 **** 0.06
13370 H 93.47410683420554 51.15548893901172 30.111235246875864 H 0.0 **** 0.06
13371 C 36.198182953193 102.28850807900534 12.826565688782818 C 0.0 **** -0.24
13372 H 35.9836842892671 101.35464962625647 12.306502894687412 H 0.0 **** 0.06
13373 H 35.32788964164695 102.58648510961928 13.41094808667625 H 0.0 **** 0.06
13374 H 36.43002858834507 103.06487874920379 12.097092739114892 H 0.0 **** 0.06
13375 H 37.051929894646605 102.14645209921088 13.490338932374154 H 0.0 **** 0.06
13376 C 6.959693142577336 78.41172326631576 69.79569992077828 C 0.0 **** -0.24
13377 H 6.055975345561249 77.83927630047648 70.01019775069437 H 0.0 **** 0.06
13378 H 6.851329021435081 78.91246197236217 68.83309637184234 H 0.0 **** 0.06
13379 H 7.816262746641069 77.73877844410416 69.76277086958456 H 0.0 **** 0.06
13380 H 7.111674692219278 79.15513811501668 70.57846716787716 H 0.0 **** 0.06
13381 C 32.90044121955657 15.140399926043983 115.40838138298264 C 0.0 **** -0.24
13382 H 33.65652284396597 15.850915240664875 115.07346771245477 H 0.0 **** 0.06
13383 H 33.291420844340394 14.562233863299753 116.24528906850816 H 0.0 **** 0.06
13384 H 32.646015455195624 14.469196475973064 114.58866010425021 H 0.0 **** 0.06
13385 H 32.00950363229225 15.682210405625 115.72549362890348 H 0.0 **** 0.06
13386 C 53.11521648241603 39.080399368258554 106.59881880642382 C 0.0 **** -0.24
13387 H 52.05955787728004 39.09045873233555 106.86896553004027 H 0.0 **** 0.06
13388 H 53.679059688582925 38.53474773576289 107.3561726013069 H 0.0 **** 0.06
13389 H 53.48413100112566 40.1044066079362 106.53848777430949 H 0.0 **** 0.06
13390 H 53.238041229506564 38.592919898708885 105.63199442705161 H 0.0 **** 0.06
13391 C 30.22934698712624 10.298975436590514 85.49032451894863 C 0.0 **** -0.24
13392 H 29.305872889631345 9.873797003413706 85.09600800027826 H 0.0 **** 0.06
13393 H 30.05480683543059 10.675314178455444 86.4980235929977 H 0.0 **** 0.06
13394 H 30.555404260842366 11.117376091933032 84.84751454640775 H 0.0 **** 0.06
13395 H 31.00064883384337 9.52897798011093 85.5168569736449 H 0.0 **** 0.06
13396 C 61.483081477653734 58.875490667926385 25.495288624372648 C 0.0 **** -0.24
13397 H 60.51579885911831 58.680802069318986 25.030950045325966 H 0.0 **** 0.06
13398 H 61.801746225594336 57.99603233616688 26.053232424887113 H 0.0 **** 0.06
13399 H 61.39509182735322 59.724330245649014 26.173407170588177 H 0.0 **** 0.06
13400 H 62.217255861941574 59.10208803907932 24.722010416571067 H 0.0 **** 0.06
13401 C 21.162592483311187 64.79009738773499 34.28842070453922 C 0.0 **** -0.24
13402 H 21.460711044381526 64.39824162351601 35.26117709062393 H 0.0 **** 0.06
13403 H 21.93423640706179 65.4640587520318 33.916585670033015 H 0.0 **** 0.06
13404 H 20.223365044232068 65.33416049747058 34.38904739006762 H 0.0 **** 0.06
13405 H 21.0314148880677 63.965512053547 33.58831500739154 H 0.0 **** 0.06
13406 C 67.83032125313912 110.51487384900483 11.039757215636172 C 0.0 **** -0.24
13407 H 66.86959925080063 111.02829584100732 11.066805612762494 H 0.0 **** 0.06
13408 H 67.73357843157166 109.59366872829187 10.46382092256107 H 0.0 **** 0.06
13409 H 68.14298944715952 110.27615660270675 12.056776538448673 H 0.0 **** 0.06
13410 H 68.57361490087459 111.15992409472781 10.572905836060926 H 0.0 **** 0.06
13411 C 27.656032043767368 62.04669956395179 36.941742421762065 C 0.0 **** -0.24
13412 H 28.528431465142774 61.77503688216572 37.536543429948225 H 0.0 **** 0.06
13413 H 27.69685439059748 63.1097663550768 36.70351327178775 H 0.0 **** 0.06
13414 H 26.74994389757603 61.83507292466112 37.50963415144522 H 0.0 **** 0.06
13415 H 27.649867522522953 61.46644927055476 36.019478295876056 H 0.0 **** 0.06
13416 C 26.965529907819985 116.73941545307376 17.386783495281065 C 0.0 **** -0.24
13417 H 27.112596213464712 117.50471380415577 18.148263928226527 H 0.0 **** 0.06
13418 H 27.61816577515441 116.94246769045404 16.537488608890953 H 0.0 **** 0.06
13419 H 25.92637901696156 116.74872728421164 17.057297065652335 H 0.0 **** 0.06
13420 H 27.205988452103156 115.76122620241931 17.803246036663666 H 0.0 **** 0.06
13421 C 86.96498773158166 33.29066272633308 40.34949362455254 C 0.0 **** -0.24
13422 H 87.63258703799443 34.14265154485579 40.478798688655615 H 0.0 **** 0.06
13423 H 86.10762439778676 33.39698403624382 41.015077981995034 H 0.0 **** 0.06
13424 H 87.49856517927404 32.37050078562717 40.58732270476918 H 0.0 **** 0.06
13425 H 86.6202577488468 33.253822706272196 39.31610520760762 H 0.0 **** 0.06
13426 C 97.07417904482324 87.33189141637746 107.9782888766359 C 0.0 **** -0.24
13427 H 97.94474869787388 87.98442206319513 107.9108810808489 H 0.0 **** 0.06
13428 H 96.19391631566728 87.9251660394406 108.22834965443258 H 0.0 **** 0.06
13429 H 97.24082725249897 86.58449019664147 108.75374508945876 H 0.0 **** 0.06
13430 H 96.91882848004036 86.83470927639817 107.02114539074714 H 0.0 **** 0.06
13431 C 100.94065783405713 40.443702821634204 59.128712657139715 C 0.0 **** -0.24
13432 H 99.96732187017662 40.35201750660314 58.64779019612001 H 0.0 **** 0.06
13433 H 101.68600033043123 40.73243316763929 58.38783891513833 H 0.0 **** 0.06
13434 H 101.21896692269186 39.486678788788915 59.571910941134945 H 0.0 **** 0.06
13435 H 100.88963576851538 41.20329836215122 59.909142004000216 H 0.0 **** 0.06
13436 C 75.3645926118688 47.24348634407016 32.60229477989639 C 0.0 **** -0.24
13437 H 76.25268803389602 46.76204922128037 33.01247452693426 H 0.0 **** 0.06
13438 H 75.59953743577239 48.27632380915916 32.34178879154234 H 0.0 **** 0.06
13439 H 74.56629563245971 47.22678395181163 33.34343205337919 H 0.0 **** 0.06
13440 H 75.04240329432449 46.70768663364135 31.708439989500036 H 0.0 **** 0.06
13441 C 68.77011295646142 77.92908555203087 35.58748160921685 C 0.0 **** -0.24
13442 H 68.18947892194163 77.72280620834835 34.68819993106739 H 0.0 **** 0.06
13443 H 68.20900354311402 77.60450573566888 36.464217477502075 H 0.0 **** 0.06
13444 H 68.96627441456016 78.9987008995231 35.65566670632743 H 0.0 **** 0.06
13445 H 69.7159967763478 77.38771838156055 35.540395880385255 H 0.0 **** 0.06
13446 C 99.87765954567749 41.56081909051399 91.64830101496267 C 0.0 **** -0.24
13447 H 100.16324210711775 42.59729256857827 91.46770223457906 H 0.0 **** 0.06
13448 H 99.40049120485921 41.48094718048958 92.62519069048045 H 0.0 **** 0.06
13449 H 100.76557959415882 40.92962143543912 91.6236831981198 H 0.0 **** 0.06
13450 H 99.18022770261436 41.238129358537066 90.87477611171548 H 0.0 **** 0.06
13451 C 57.65457337171049 21.467554133782073 72.28734312210293 C 0.0 **** -0.24
13452 H 58.22716152936339 20.579877796146974 72.55829912842515 H 0.0 **** 0.06
13453 H 56.596275991423546 21.213223096147573 72.23084592077223 H 0.0 **** 0.06
13454 H 57.99333993616464 21.835477714997353 71.31903170410789 H 0.0 **** 0.06
13455 H 57.80341741686238 22.239689628428152 73.04196341047049 H 0.0 **** 0.06
13456 C 88.38636299036446 117.65855342883748 113.70946521186113 C 0.0 **** -0.24
13457 H 89.41670029030485 117.72356451623116 114.05952405165851 H 0.0 **** 0.06
13458 H 88.13420610869389 118.56187110046136 113.15252108808653 H 0.0 **** 0.06
13459 H 87.71853272836756 117.56115205797022 114.56455421246824 H 0.0 **** 0.06
13460 H 88.27780923614077 116.78895032642896 113.06112185374974 H 0.0 **** 0.06
13461 C 65.8194145710213 35.56739653481083 117.87220895375732 C 0.0 **** -0.24
13462 H 66.22824662196663 35.01524297851144 117.02558128223117 H 0.0 **** 0.06
13463 H 66.5691239883119 36.263131238211784 118.24764672563563 H 0.0 **** 0.06
13464 H 65.5440703240975 34.868553586281514 118.66201566533023 H 0.0 **** 0.06
13465 H 64.93618724855017 36.120576088387224 117.55277750657847 H 0.0 **** 0.06
13466 C 98.98125895964782 48.027638802850504 12.702968183425611 C 0.0 **** -0.24
13467 H 98.25360433351798 47.21629686576722 12.673957763315258 H 0.0 **** 0.06
13468 H 99.94144113474889 47.666991909212584 12.334276484310266 H 0.0 **** 0.06
13469 H 99.09299357375556 48.37846823418528 13.728576596254385 H 0.0 **** 0.06
13470 H 98.63451630412973 48.84787601227714 12.073648648880322 H 0.0 **** 0.06
13471 C 13.061337823346264 73.05615156233358 88.84599966613911 C 0.0 **** -0.24
13472 H 13.996073267384446 73.61305702119517 88.7826868246726 H 0.0 **** 0.06
13473 H 13.2618656618653 72.05067690178424 89.2173673018805 H 0.0 **** 0.06
13474 H 12.609486346047134 72.99403508397933 87.85625559485547 H 0.0 **** 0.06
13475 H 12.379527063122282 73.56611688973891 89.52630401005567 H 0.0 **** 0.06
13476 C 44.306216123968994 58.130631478809384 16.789222296029465 C 0.0 **** -0.24
13477 H 43.798673587062325 57.47243961252554 17.49474595796312 H 0.0 **** 0.06
13478 H 45.018146247327394 57.55156724766638 16.200651389008215 H 0.0 **** 0.06
13479 H 44.835455122159686 58.91074669971773 17.33546842461476 H 0.0 **** 0.06
13480 H 43.57153854800745 58.58583366892967 16.12495698689159 H 0.0 **** 0.06
13481 C 94.61866989868639 114.20373121733294 91.83424589801356 C 0.0 **** -0.24
13482 H 93.72991786541655 114.27228667351739 92.46208232609683 H 0.0 **** 0.06
13483 H 94.32778628661896 113.91149611955572 90.82508141185815 H 0.0 **** 0.06
13484 H 95.29788786448563 113.45793056685523 92.2473995288046 H 0.0 **** 0.06
13485 H 95.11750124826983 115.17187061114652 91.80371874760289 H 0.0 **** 0.06
13486 C 82.86740848786744 65.61073795533588 15.211275679433498 C 0.0 **** -0.24
13487 H 81.7785091988157 65.65315230988134 15.176204796432273 H 0.0 **** 0.06
13488 H 83.17845654742399 64.91603471001443 15.992087519224128 H 0.0 **** 0.06
13489 H 83.26161139770701 66.60246797963015 15.430045231327682 H 0.0 **** 0.06
13490 H 83.24873586225456 65.2712267284735 14.249335968813284 H 0.0 **** 0.06
13491 C 56.69993604129846 65.01227785011486 74.78862279390842 C 0.0 **** -0.24
13492 H 56.31958923383152 65.92821186377682 74.33713667118337 H 0.0 **** 0.06
13493 H 55.87143161586749 64.44458874942109 75.21267007297266 H 0.0 **** 0.06
13494 H 57.4101201675733 65.26322143401251 75.57645804876717 H 0.0 **** 0.06
13495 H 57.1996865810857 64.41226635146074 74.02676041038168 H 0.0 **** 0.06
13496 C 93.9357292363261 60.19308888137539 99.74924392171516 C 0.0 **** -0.24
13497 H 93.89621315082005 60.09930353839292 100.83492592574436 H 0.0 **** 0.06
13498 H 94.48430064852994 59.349220737306155 99.33138927753362 H 0.0 **** 0.06
13499 H 94.4400646849947 61.122418258136236 99.48404353002212 H 0.0 **** 0.06
13500 H 92.92189364049108 60.203221890044716 99.3489686653698 H 0.0 **** 0.06
13501 C 109.94879245235734 95.45915611838723 14.418362085019325 C 0.0 **** -0.24
13502 H 110.83345648456712 96.08870477922306 14.511144474670317 H 0.0 **** 0.06
13503 H 110.2232782910501 94.41873904641409 14.593839830648847 H 0.0 **** 0.06
13504 H 109.53367241882512 95.56119806024662 13.41616983203734 H 0.0 **** 0.06
13505 H 109.20501265330924 95.76724297944236 15.1534734302775 H 0.0 **** 0.06
13506 C 59.19267423584626 108.35571152967711 45.263979302953715 C 0.0 **** -0.24
13507 H 58.71986164585646 108.89598591743228 46.08456168819032 H 0.0 **** 0.06
13508 H 58.45908251414898 108.17314339676338 44.47907128244452 H 0.0 **** 0.06
13509 H 59.57846017325985 107.40413149509507 45.63050386019535 H 0.0 **** 0.06
13510 H 60.0139210061481 108.95034421207495 44.86378773695225 H 0.0 **** 0.06
13511 C 92.27622545272942 30.153081354742397 78.57284907377934 C 0.0 **** -0.24
13512 H 92.60931967262545 30.745608214421964 77.72115682275015 H 0.0 **** 0.06
13513 H 91.29092245376046 29.73572882156421 78.36156130088708 H 0.0 **** 0.06
13514 H 92.21912151727165 30.789048004469265 79.45666532941604 H 0.0 **** 0.06
13515 H 92.98395193192928 29.343793860249406 78.75179190252311 H 0.0 **** 0.06
13516 C 41.629566215382894 108.92979017375447 21.637823131162037 C 0.0 **** -0.24
13517 H 41.48693770347933 109.63890176946447 20.822597762050265 H 0.0 **** 0.06
13518 H 41.17798192139908 109.32634344084354 22.547166135829855 H 0.0 **** 0.06
13519 H 42.69553610676072 108.7722124471533 21.799702637588723 H 0.0 **** 0.06
13520 H 41.15580668750532 107.98151505977043 21.380848655239333 H 0.0 **** 0.06
13521 C 68.59430953293219 67.03941327755334 26.23432682766304 C 0.0 **** -0.24
13522 H 69.31731997045009 66.27344385239766 26.515668871637843 H 0.0 **** 0.06
13523 H 69.12382134476897 67.93016531157323 25.895711047619386 H 0.0 **** 0.06
13524 H 67.9752920335556 67.28941830650683 27.096267324957296 H 0.0 **** 0.06
13525 H 67.96307856625583 66.66380059287152 25.42927333847291 H 0.0 **** 0.06
13526 C 22.277906688450997 16.99517356697612 38.945822363611896 C 0.0 **** -0.24
13527 H 21.37241829311121 17.325489617101752 39.45504299860618 H 0.0 **** 0.06
13528 H 22.23405016731263 15.917429713231542 38.78967069042682 H 0.0 **** 0.06
13529 H 23.14792795199054 17.239979807251274 39.55509362793893 H 0.0 **** 0.06
13530 H 22.35638124385619 17.49945359814423 37.98224568664993 H 0.0 **** 0.06
13531 C 51.30787514112029 64.51488895066569 114.39560312190562 C 0.0 **** -0.24
13532 H 51.63779772722319 64.83500128919746 113.40727132125349 H 0.0 **** 0.06
13533 H 52.096678229747624 63.93163147387082 114.87088302193405 H 0.0 **** 0.06
13534 H 50.41103269342858 63.903688961618 114.29807504542865 H 0.0 **** 0.06
13535 H 51.08665409495944 65.39179508216745 115.0047677188295 H 0.0 **** 0.06
13536 C 50.978819402749934 26.492798852903775 96.31041474330203 C 0.0 **** -0.24
13537 H 51.35916321827956 26.18931453387131 95.33527044935332 H 0.0 **** 0.06
13538 H 50.62246264922857 27.521654846142724 96.25727536416781 H 0.0 **** 0.06
13539 H 51.7772493622534 26.422077169242158 97.04922434385244 H 0.0 **** 0.06
13540 H 50.15732979715207 25.837802856670976 96.60003107737325 H 0.0 **** 0.06
13541 C 21.73498383596035 22.864807535504752 69.89176862339036 C 0.0 **** -0.24
13542 H 22.3215714983387 22.74383854108931 68.98040423068429 H 0.0 **** 0.06
13543 H 20.68141423185193 22.974040891916317 69.63326761549783 H 0.0 **** 0.06
13544 H 22.072894039497143 23.75249993492529 70.42582051788088 H 0.0 **** 0.06
13545 H 21.865220288078604 21.987153968288432 70.5262537308761 H 0.0 **** 0.06
13546 C 94.13774667279336 67.24855454886239 22.225192853253702 C 0.0 **** -0.24
13547 H 93.92883849467574 67.54660999807007 21.19804590326322 H 0.0 **** 0.06
13548 H 94.29792489231372 68.13726220660945 22.836116940583338 H 0.0 **** 0.06
13549 H 95.03315779319556 66.62631355717107 22.247095372775505 H 0.0 **** 0.06
13550 H 93.2930581896554 66.68386713213627 22.619466921228195 H 0.0 **** 0.06
13551 C 110.43517575501052 118.50967770870619 92.94046010491485 C 0.0 **** -0.24
13552 H 110.44617647682898 119.5813238740031 92.7416636068458 H 0.0 **** 0.06
13553 H 111.38277197324273 118.07295263849021 92.62485402205567 H 0.0 **** 0.06
13554 H 109.61821049435257 118.04553583524357 92.38663816616776 H 0.0 **** 0.06
13555 H 110.29361494922385 118.33987606223151 94.00766509485192 H 0.0 **** 0.06
13556 C 7.393856972593994 27.936557274121597 8.426729337039973 C 0.0 **** -0.24
13557 H 6.899938641372145 27.434279453818476 9.257844959251997 H 0.0 **** 0.06
13558 H 7.181839081031967 29.006087615625717 8.471495310797678 H 0.0 **** 0.06
13559 H 7.022492167903508 27.53203949174464 7.484850284947683 H 0.0 **** 0.06
13560 H 8.470145135707597 27.776975756329236 8.49254805577904 H 0.0 **** 0.06
13561 C 27.24120799191499 42.722034514879056 76.0591719621865 C 0.0 **** -0.24
13562 H 27.205836935178468 42.82297038209866 74.9738865262573 H 0.0 **** 0.06
13563 H 27.588645893801043 41.7217758997584 76.31974486277184 H 0.0 **** 0.06
13564 H 26.244808942522013 42.8794919782497 76.47122852307038 H 0.0 **** 0.06
13565 H 27.92659310684897 43.462714212602236 76.47060892178521 H 0.0 **** 0.06
13566 C 105.95235649218796 27.539673091331856 2.295408560715586 C 0.0 **** -0.24
13567 H 105.80782828312687 26.47398311301101 2.115697454714521 H 0.0 **** 0.06
13568 H 106.1223696675161 28.047943025172927 1.3449902810166066 H 0.0 **** 0.06
13569 H 106.81577269360608 27.68392400144849 2.944791884310547 H 0.0 **** 0.06
13570 H 105.06448889294313 27.95080414520522 2.7744877596999657 H 0.0 **** 0.06
13571 C 104.93728401725005 41.21804365208842 87.01849951322095 C 0.0 **** -0.24
13572 H 104.21884407787479 40.804369236654935 86.3115680892389 H 0.0 **** 0.06
13573 H 105.03719290344344 40.54572798689288 87.87082893937657 H 0.0 **** 0.06
13574 H 104.58950276140433 42.19237604725802 87.36224821606675 H 0.0 **** 0.06
13575 H 105.90558436413116 41.32953209294301 86.52921389819511 H 0.0 **** 0.06
13576 C 110.10186169383054 110.63916333471363 92.02707515932178 C 0.0 **** -0.24
13577 H 109.46873422577129 109.77139022414306 92.20903928196674 H 0.0 **** 0.06
13578 H 110.8332282698852 110.72948777243603 92.8306689861628 H 0.0 **** 0.06
13579 H 109.48570429983965 111.53769226932087 91.99414511357426 H 0.0 **** 0.06
13580 H 110.61971157319789 110.51823180557795 91.07617160323255 H 0.0 **** 0.06
13581 C 54.78268701410059 67.5635075180347 78.66734036208118 C 0.0 **** -0.24
13582 H 55.80434377038182 67.51432825489766 78.29025355667989 H 0.0 **** 0.06
13583 H 54.097599027222344 67.1758048408976 77.91304288487959 H 0.0 **** 0.06
13584 H 54.527794144244496 68.5995167643782 78.89100763262479 H 0.0 **** 0.06
13585 H 54.70134621673503 66.96527469029024 79.57476127683674 H 0.0 **** 0.06
13586 C 92.82561190902129 44.80555499664209 56.90837825217159 C 0.0 **** -0.24
13587 H 93.60454332348115 44.994934561383054 57.64662060523597 H 0.0 **** 0.06
13588 H 93.2144413850952 45.008466091994 55.910233309053694 H 0.0 **** 0.06
13589 H 91.97264135266147 45.45415046100931 57.10520471588762 H 0.0 **** 0.06
13590 H 92.51123661888107 43.76380490942303 56.97041446316746 H 0.0 **** 0.06
13591 C 4.901422216266491 37.37260421530587 86.85705507851432 C 0.0 **** -0.24
13592 H 3.8590244377067595 37.686464524824004 86.81961108091531 H 0.0 **** 0.06
13593 H 4.995563737953198 36.37240067376237 86.43362521945463 H 0.0 **** 0.06
13594 H 5.2395980186496 37.36201042946524 87.8933342310963 H 0.0 **** 0.06
13595 H 5.512131948823811 38.0700308264326 86.28281786849095 H 0.0 **** 0.06
13596 C 47.699600237235074 8.99421127634118 19.777295257313316 C 0.0 **** -0.24
13597 H 47.38265705363705 9.617257241579441 18.940841239424632 H 0.0 **** 0.06
13598 H 48.283117165265026 9.594052681677063 20.476403909900696 H 0.0 **** 0.06
13599 H 48.31134922228355 8.172442612777697 19.4056045415114 H 0.0 **** 0.06
13600 H 46.82212186494755 8.594547943661837 20.284858504658853 H 0.0 **** 0.06
13601 C 32.49951222745685 29.53889784542458 100.23208883468033 C 0.0 **** -0.24
13602 H 32.18805006850181 28.541948507888 100.54483305546427 H 0.0 **** 0.06
13603 H 32.00689474023031 30.285381376003087 100.85552283039547 H 0.0 **** 0.06
13604 H 32.22167033654662 29.695730555179097 99.18932567114427 H 0.0 **** 0.06
13605 H 33.58023477682531 29.631090446598954 100.3374540717424 H 0.0 **** 0.06
13606 C 61.685177970536905 19.022408167328805 24.32149448889632 C 0.0 **** -0.24
13607 H 61.93373230898265 19.43014286342202 23.341862055541213 H 0.0 **** 0.06
13608 H 62.562872244234136 19.067140780511522 24.966830343851626 H 0.0 **** 0.06
13609 H 61.3657386840136 17.986265645585107 24.212895471849862 H 0.0 **** 0.06
13610 H 60.87810804363625 19.60740915178195 24.76397231319541 H 0.0 **** 0.06
13611 C 64.51827454272944 87.4037571035096 116.21702174764098 C 0.0 **** -0.24
13612 H 63.59957743140288 86.82753439284377 116.11101926636823 H 0.0 **** 0.06
13613 H 64.78618907642172 87.84175305426376 115.25511688514837 H 0.0 **** 0.06
13614 H 65.32152497785975 86.74758407538934 116.55353373593184 H 0.0 **** 0.06
13615 H 64.36722805308912 88.19724122825323 116.94879320129019 H 0.0 **** 0.06
13616 C 19.12048955520113 67.87871104862799 40.6416821080694 C 0.0 **** -0.24
13617 H 18.14623080177338 67.67401484804552 41.08484221357821 H 0.0 **** 0.06
13618 H 19.12696836583199 68.88644805872036 40.22548653714904 H 0.0 **** 0.06
13619 H 19.318627056882228 67.15667476783841 39.849036061870265 H 0.0 **** 0.06
13620 H 19.891812620802238 67.79688746295764 41.408590379576594 H 0.0 **** 0.06
13621 C 109.67013173860266 67.956461576468 65.76000637594166 C 0.0 **** -0.24
13622 H 108.86370314077834 68.68823715680654 65.7151513855141 H 0.0 **** 0.06
13623 H 109.89534435887316 67.60084212485324 64.75440373609254 H 0.0 **** 0.06
13624 H 109.3642739369804 67.1162663843142 66.38328930131686 H 0.0 **** 0.06
13625 H 110.55813694556849 68.42108824419219 66.18885063099191 H 0.0 **** 0.06
13626 C 40.94471659530616 101.00047979262834 39.13891523816103 C 0.0 **** -0.24
13627 H 41.2078644851935 99.94633041933488 39.226971263590244 H 0.0 **** 0.06
13628 H 41.01172590858648 101.30562412666123 38.0942639550814 H 0.0 **** 0.06
13629 H 41.63266225197161 101.59772245253495 39.73744723738719 H 0.0 **** 0.06
13630 H 39.92633960072218 101.15093177411521 39.49652261865752 H 0.0 **** 0.06
13631 C 82.3152782497666 104.68145989148579 14.657561746315967 C 0.0 **** -0.24
13632 H 82.3946579698993 103.60988477353706 14.8428756515158 H 0.0 **** 0.06
13633 H 82.04265553232435 104.85063720396698 13.615398843770762 H 0.0 **** 0.06
13634 H 83.27312433754338 105.1582455371636 14.865796931953863 H 0.0 **** 0.06
13635 H 81.54964773297706 105.10519712274115 15.307371128804817 H 0.0 **** 0.06
13636 C 80.0734727882969 0.3090176654019636 36.20964533169989 C 0.0 **** -0.24
13637 H 80.11459801503983 -0.5160732524847287 36.92094644972477 H 0.0 **** 0.06
13638 H 80.733136786904 0.09567123051082049 35.36820114937653 H 0.0 **** 0.06
13639 H 80.39479287830062 1.2283014516616895 36.69998636405961 H 0.0 **** 0.06
13640 H 79.05151963105229 0.4272541162110528 35.84981420417519 H 0.0 **** 0.06
13641 C 67.42119422103508 54.61667821664699 57.16623798784068 C 0.0 **** -0.24
13642 H 68.47501933245724 54.883788793844396 57.091765814482706 H 0.0 **** 0.06
13643 H 66.84352275575213 55.49503205969463 57.4538362550249 H 0.0 **** 0.06
13644 H 67.29658057357256 53.83789190901402 57.918332310742635 H 0.0 **** 0.06
13645 H 67.07062634840679 54.250410885337914 56.20195903103389 H 0.0 **** 0.06
13646 C 84.17205146375738 11.188003911778114 85.67107490166683 C 0.0 **** -0.24
13647 H 85.14958882143674 10.705368361339413 85.67427394080033 H 0.0 **** 0.06
13648 H 84.18334532219365 12.026141441149 84.97418717128915 H 0.0 **** 0.06
13649 H 83.94343905275866 11.55163251258411 86.67359086607209 H 0.0 **** 0.06
13650 H 83.41314506235426 10.469062747634915 85.36336203143972 H 0.0 **** 0.06
13651 C 73.40857689529932 53.76909405117104 69.67664581728087 C 0.0 **** -0.24
13652 H 72.57391035090328 54.40764560264728 69.96563411277003 H 0.0 **** 0.06
13653 H 74.33201046106993 54.16636655433547 70.09914390379285 H 0.0 **** 0.06
13654 H 73.48712318226757 53.74306742588118 68.59032883028482 H 0.0 **** 0.06
13655 H 73.24127803911367 52.75961822551869 70.05390473723614 H 0.0 **** 0.06
13656 C 62.729984998101806 59.74417362220635 39.614173461991385 C 0.0 **** -0.24
13657 H 62.24233063524725 58.77820276572206 39.47487441196861 H 0.0 **** 0.06
13658 H 63.7404205733528 59.70271281971159 39.20773711164929 H 0.0 **** 0.06
13659 H 62.77576505082042 59.97638406975102 40.678751846509044 H 0.0 **** 0.06
13660 H 62.16018240673204 60.515704075826335 39.09794556945584 H 0.0 **** 0.06
13661 C 91.02557074211046 57.06942639430369 105.02334961532245 C 0.0 **** -0.24
13662 H 90.44870959189319 56.222282683017255 104.65216998162515 H 0.0 **** 0.06
13663 H 91.56238613464353 57.534174644347274 104.19544505886205 H 0.0 **** 0.06
13664 H 91.73969788511994 56.723840802943954 105.77041558125671 H 0.0 **** 0.06
13665 H 90.3520897983961 57.79748070354427 105.47374479333234 H 0.0 **** 0.06
13666 C 21.719963619619566 38.89334493706042 67.48302832833087 C 0.0 **** -0.24
13667 H 21.905141996732453 39.96085182976833 67.36718997646193 H 0.0 **** 0.06
13668 H 22.656918969009467 38.38573746892922 67.71768775799936 H 0.0 **** 0.06
13669 H 21.311098332855344 38.492842360075144 66.55513099591394 H 0.0 **** 0.06
13670 H 21.008080034041832 38.733831877596856 68.29236686308658 H 0.0 **** 0.06
13671 C 15.51431690643642 42.74932363770617 32.58876554863804 C 0.0 **** -0.24
13672 H 15.985445106211728 43.60531669637362 33.072377685882245 H 0.0 **** 0.06
13673 H 16.20475052411706 42.317196935179794 31.864260534405673 H 0.0 **** 0.06
13674 H 14.608209280443731 43.07420587428646 32.078335324140966 H 0.0 **** 0.06
13675 H 15.260992682643234 42.00176738917875 33.34029335576275 H 0.0 **** 0.06
13676 C 75.85192145883309 7.8346369908070415 47.920297655058334 C 0.0 **** -0.24
13677 H 76.25154229865876 8.703696070525325 48.444099279108286 H 0.0 **** 0.06
13678 H 76.13690482594367 7.881910052332572 46.8691276758106 H 0.0 **** 0.06
13679 H 74.76604303815802 7.828207606494217 48.00274862818796 H 0.0 **** 0.06
13680 H 76.25600111554016 6.925507246467902 48.36594474138906 H 0.0 **** 0.06
13681 C 28.43547799401889 72.59599155730697 50.506798655701544 C 0.0 **** -0.24
13682 H 29.440007401145465 72.82279522125805 50.150326626586406 H 0.0 **** 0.06
13683 H 28.396551777806394 72.72163321430412 51.58818406828814 H 0.0 **** 0.06
13684 H 28.183272768159945 71.56657348567003 50.250374040500304 H 0.0 **** 0.06
13685 H 27.721542221621647 73.2726426146622 50.03555167331186 H 0.0 **** 0.06
13686 C 88.94042214855313 94.68540985760313 13.669431694185572 C 0.0 **** -0.24
13687 H 89.05661703949863 95.7415127806969 13.914352039593343 H 0.0 **** 0.06
13688 H 88.96225563920262 94.09556113047643 14.586198508238848 H 0.0 **** 0.06
13689 H 89.75517141092087 94.37332650478919 13.015947035990475 H 0.0 **** 0.06
13690 H 87.98848064227343 94.53303329651445 13.160943430988318 H 0.0 **** 0.06
13691 C 72.91597175875853 26.30156424568338 48.88590995656429 C 0.0 **** -0.24
13692 H 72.56781447091316 26.74531442289276 47.9526367316511 H 0.0 **** 0.06
13693 H 73.44385325137327 25.372047155889703 48.67089896868319 H 0.0 **** 0.06
13694 H 72.06164494697265 26.09492944432472 49.53017255834877 H 0.0 **** 0.06
13695 H 73.58997793570936 26.994568505860286 49.38786238850875 H 0.0 **** 0.06
13696 C 62.24163295760639 49.70949653192792 76.06884231422842 C 0.0 **** -0.24
13697 H 62.5235670082022 49.948896319441985 75.04320712634635 H 0.0 **** 0.06
13698 H 61.154502596885045 49.71630300668005 76.15734607301712 H 0.0 **** 0.06
13699 H 62.66617747386747 50.451880391145636 76.74416941247912 H 0.0 **** 0.06
13700 H 62.621301599328866 48.72152392717148 76.32753976092476 H 0.0 **** 0.06
13701 C 94.83190267148325 41.49329682132819 117.84340127488606 C 0.0 **** -0.24
13702 H 95.04179348793824 40.96307627719804 116.91360469332484 H 0.0 **** 0.06
13703 H 94.15616385066718 42.3245001913469 117.64165247046563 H 0.0 **** 0.06
13704 H 95.76317544450492 41.87420254839677 118.26241846862364 H 0.0 **** 0.06
13705 H 94.3661776543363 40.81004129934453 118.55276056365597 H 0.0 **** 0.06
13706 C 78.40470294665124 47.24056751398078 85.74763461001183 C 0.0 **** -0.24
13707 H 78.39776844427743 47.202461483815625 86.83677343962714 H 0.0 **** 0.06
13708 H 78.17323128557825 46.2528120649674 85.3486150202398 H 0.0 **** 0.06
13709 H 79.3920682147413 47.55016874015509 85.4019995415434 H 0.0 **** 0.06
13710 H 77.6587164072211 47.956041275676114 85.40388927086244 H 0.0 **** 0.06
13711 C 98.60787616565511 50.08405080482453 76.31383392904965 C 0.0 **** -0.24
13712 H 98.6945080144566 50.80286687069918 75.4997129978855 H 0.0 **** 0.06
13713 H 97.67275657431654 50.25193468594114 76.84841501702462 H 0.0 **** 0.06
13714 H 99.44584545300083 50.20814553920775 76.998986814604 H 0.0 **** 0.06
13715 H 98.61764740581148 49.07287977389478 75.9070806464378 H 0.0 **** 0.06
13716 C 22.817112234670162 17.060656501871335 31.604605650341803 C 0.0 **** -0.24
13717 H 21.816886862085312 16.890280080982237 31.206602339095383 H 0.0 **** 0.06
13718 H 23.349991736376865 16.11211462289657 31.66759202806098 H 0.0 **** 0.06
13719 H 22.742577270909806 17.503319987919838 32.598229415681 H 0.0 **** 0.06
13720 H 23.359255250706667 17.739482524726654 30.944475443325715 H 0.0 **** 0.06
13721 C 34.767298392045795 11.904922726942488 73.54995496547073 C 0.0 **** -0.24
13722 H 34.09109923567685 12.24222057265149 74.33535640413021 H 0.0 **** 0.06
13723 H 34.31388289170921 11.069295346107197 73.01501576717033 H 0.0 **** 0.06
13724 H 35.709842578642565 11.583792808511589 73.99407278678538 H 0.0 **** 0.06
13725 H 34.953807733195475 12.723141241748777 72.8536013485828 H 0.0 **** 0.06
13726 C 111.31852982911613 74.88441514154627 55.86764934048091 C 0.0 **** -0.24
13727 H 110.92149140250413 75.2419188391446 54.916968410840354 H 0.0 **** 0.06
13728 H 110.76230200994684 74.0017512754232 56.18434907481864 H 0.0 **** 0.06
13729 H 111.21852723579076 75.66642154809247 56.6191098656455 H 0.0 **** 0.06
13730 H 112.3715816251806 74.62750242605233 55.7477309894191 H 0.0 **** 0.06
13731 C 16.506504611729717 114.86436105440673 24.807366158291927 C 0.0 **** -0.24
13732 H 15.891789343461038 114.1833328193891 24.217694786693556 H 0.0 **** 0.06
13733 H 15.874147246912308 115.40870751496612 25.508598396794014 H 0.0 **** 0.06
13734 H 17.004410319496753 115.5709818810559 24.142826824866745 H 0.0 **** 0.06
13735 H 17.25317098953371 114.29397623851342 25.358748039747752 H 0.0 **** 0.06
13736 C 6.504007200659846 41.01456701950483 32.336618660906254 C 0.0 **** -0.24
13737 H 6.182193226213807 41.564666685286056 31.452724066400492 H 0.0 **** 0.06
13738 H 6.414872437763012 41.65424303306579 33.215151648678074 H 0.0 **** 0.06
13739 H 7.543509235624821 40.706829989687826 32.214515710890964 H 0.0 **** 0.06
13740 H 5.877143654142751 40.13216421748563 32.46397226793809 H 0.0 **** 0.06
13741 C 44.35452148671192 49.495208722936695 71.15804541859995 C 0.0 **** -0.24
13742 H 43.69617287976325 49.22420998519295 71.98337890353241 H 0.0 **** 0.06
13743 H 43.88893540542717 50.285969363955 70.56868741564625 H 0.0 **** 0.06
13744 H 44.523396804593915 48.62291593139853 70.52709855298701 H 0.0 **** 0.06
13745 H 45.3062059306295 49.84829032446176 71.55357113892768 H 0.0 **** 0.06
13746 C 12.06015891003392 10.81010392460405 28.82142189210549 C 0.0 **** -0.24
13747 H 13.078125681471121 11.196493923406308 28.76910553412722 H 0.0 **** 0.06
13748 H 11.533833874045797 11.28525403051907 29.65074212357804 H 0.0 **** 0.06
13749 H 12.088505956544836 9.731879685419813 28.977557997945155 H 0.0 **** 0.06
13750 H 11.54007898069517 11.029721410701768 27.888904542187845 H 0.0 **** 0.06
13751 C 84.65391873923758 105.37175299185901 51.9468982268902 C 0.0 **** -0.24
13752 H 83.60085579745527 105.54225127244635 51.725438783922414 H 0.0 **** 0.06
13753 H 84.74372993682204 104.82298927664684 52.885309652472074 H 0.0 **** 0.06
13754 H 85.16667490909046 106.32954616032364 52.03471007005783 H 0.0 **** 0.06
13755 H 85.10463730208869 104.79126521443831 51.14196513502543 H 0.0 **** 0.06
13756 C 60.124812086644035 94.01373057064791 86.05346143861499 C 0.0 **** -0.24
13757 H 59.72620335576021 93.73686450852568 87.02951821976711 H 0.0 **** 0.06
13758 H 59.42112782602924 94.67676695388991 85.54849224800245 H 0.0 **** 0.06
13759 H 60.27254019054356 93.11595272490425 85.45249973615006 H 0.0 **** 0.06
13760 H 61.077462739363945 94.52607854364186 86.18199846700219 H 0.0 **** 0.06
13761 C 24.700000007229846 29.613920143945784 26.343969796293862 C 0.0 **** -0.24
13762 H 24.07324754770724 30.45498619319487 26.641129431233566 H 0.0 **** 0.06
13763 H 24.96062226808266 29.026735397169027 27.225424146448887 H 0.0 **** 0.06
13764 H 25.610142255689823 29.98758607893909 25.87397993354344 H 0.0 **** 0.06
13765 H 24.15675533940839 28.98743090529439 25.63716007638962 H 0.0 **** 0.06
13766 C 85.80709929213904 93.68292249306273 108.24374184938085 C 0.0 **** -0.24
13767 H 86.26794813575034 94.6660089046162 108.14746090392538 H 0.0 **** 0.06
13768 H 86.20497208167055 93.01879492622669 107.47684658139372 H 0.0 **** 0.06
13769 H 84.72773899258459 93.77484987855166 108.12307178451331 H 0.0 **** 0.06
13770 H 86.02843954094746 93.27414294413549 109.22960560214031 H 0.0 **** 0.06
13771 C 33.0021097244547 92.6974089421582 104.69487005453826 C 0.0 **** -0.24
13772 H 33.22774059348948 91.668142159903 104.97347400353414 H 0.0 **** 0.06
13773 H 32.74709294968877 93.26704871309488 105.58810154927886 H 0.0 **** 0.06
13774 H 32.16105831260354 92.70925505175012 104.00181396312544 H 0.0 **** 0.06
13775 H 33.874662606767075 93.14285213604003 104.21584556248035 H 0.0 **** 0.06
13776 C 20.58150922466055 27.672086221286406 23.208922001675546 C 0.0 **** -0.24
13777 H 19.836283043793088 26.877146499376863 23.19116480419291 H 0.0 **** 0.06
13778 H 21.524656150547315 27.295344678680237 22.812026162370216 H 0.0 **** 0.06
13779 H 20.72799734030903 28.010305642657727 24.23410459560364 H 0.0 **** 0.06
13780 H 20.237982597379954 28.506516366929475 22.597259205727084 H 0.0 **** 0.06
13781 C 69.85279237830082 98.43805925981113 94.10605834545063 C 0.0 **** -0.24
13782 H 69.68973103595206 99.50414625318368 93.95117441194694 H 0.0 **** 0.06
13783 H 70.86714056564438 98.17762839664482 93.80323973888122 H 0.0 **** 0.06
13784 H 69.13791959440846 97.87056271069892 93.5086278047009 H 0.0 **** 0.06
13785 H 69.71546354823136 98.19884399538788 95.16097041142757 H 0.0 **** 0.06
13786 C 88.16083971288703 94.2572095890335 0.14351845261555063 C 0.0 **** -0.24
13787 H 87.97334352445887 95.32983963726417 0.08705099626076596 H 0.0 **** 0.06
13788 H 89.13408356275067 94.03593575537883 -0.2960505904933193 H 0.0 **** 0.06
13789 H 87.38389306324936 93.72380275953657 -0.40392068811423876 H 0.0 **** 0.06
13790 H 88.15192912842 93.94170704193533 1.1869576363335295 H 0.0 **** 0.06
13791 C 63.11083305786016 45.422964143743 86.16544113006998 C 0.0 **** -0.24
13792 H 63.40222705226418 44.39667197643892 86.38804722910385 H 0.0 **** 0.06
13793 H 62.3851712408254 45.42671967916816 85.3518900169382 H 0.0 **** 0.06
13794 H 63.99073394516603 45.99486562504557 85.87109153549395 H 0.0 **** 0.06
13795 H 62.66537367062449 45.87377978068068 87.05295779941176 H 0.0 **** 0.06
13796 C 100.51557366081684 43.338458013940965 118.5406546683167 C 0.0 **** -0.24
13797 H 99.42698183613379 43.344366302784664 118.60121486640807 H 0.0 **** 0.06
13798 H 100.83871663657993 44.01582546557547 117.74966568654588 H 0.0 **** 0.06
13799 H 100.86131471860983 42.3291392218213 118.3187442559906 H 0.0 **** 0.06
13800 H 100.9339014503712 43.666260419617736 119.49301756727266 H 0.0 **** 0.06
13801 C 44.190130966514545 105.84795066819592 33.063741073395136 C 0.0 **** -0.24
13802 H 45.08186695672239 106.45237028802 32.89795684557282 H 0.0 **** 0.06
13803 H 43.50276181962056 105.97880415804241 32.22808110725157 H 0.0 **** 0.06
13804 H 43.70415372177149 106.16376730795801 33.98704684870981 H 0.0 **** 0.06
13805 H 44.47243180663878 104.79751818744765 33.14157724902617 H 0.0 **** 0.06
13806 C 32.98834499136433 116.90889413552668 63.69645077649205 C 0.0 **** -0.24
13807 H 33.377620285928344 115.89089112092944 63.67310137442691 H 0.0 **** 0.06
13808 H 32.29207323244168 117.01218292932838 64.52981128693307 H 0.0 **** 0.06
13809 H 32.47101378006806 117.12051531103866 62.76168912056463 H 0.0 **** 0.06
13810 H 33.81278969777844 117.61019092939368 63.82360138897513 H 0.0 **** 0.06
13811 C 48.53222158456319 86.56853858621929 26.786862647615777 C 0.0 **** -0.24
13812 H 47.44296397623417 86.59359662235133 26.820217314123397 H 0.0 **** 0.06
13813 H 48.913021173900404 86.10718049793013 27.697631505696847 H 0.0 **** 0.06
13814 H 48.91634858577902 87.58577954194911 26.706005371358657 H 0.0 **** 0.06
13815 H 48.855439427997965 85.98835306425377 25.922505336871694 H 0.0 **** 0.06
13816 C 49.97462263234496 102.38722423128351 79.78877358845568 C 0.0 **** -0.24
13817 H 49.864987497915024 103.32036607873601 79.23364912942512 H 0.0 **** 0.06
13818 H 49.748876866974115 102.56317645711323 80.84044617205376 H 0.0 **** 0.06
13819 H 50.99898871910483 102.02603533499192 79.69104261657779 H 0.0 **** 0.06
13820 H 49.28629837503229 101.64426935753127 79.38794164842304 H 0.0 **** 0.06
13821 C 34.39850126832542 41.81740330495336 18.28881349727959 C 0.0 **** -0.24
13822 H 34.329370968722074 40.80758975564936 18.69400629160026 H 0.0 **** 0.06
13823 H 34.96132843478031 42.447199593424784 18.97745619001165 H 0.0 **** 0.06
13824 H 33.39622799392569 42.225020247088196 18.157785761247084 H 0.0 **** 0.06
13825 H 34.907489680048116 41.78690054750757 17.32482126871639 H 0.0 **** 0.06
13826 C 111.65289433538882 8.285548804364339 2.2958190596940113 C 0.0 **** -0.24
13827 H 111.86576806829983 7.521185735121662 1.5489038013514431 H 0.0 **** 0.06
13828 H 110.61015936847798 8.595427924606781 2.2106930754521272 H 0.0 **** 0.06
13829 H 112.30249955071355 9.145730563129291 2.1321150272474654 H 0.0 **** 0.06
13830 H 111.83093144748177 7.8799375041767235 3.2918275123547858 H 0.0 **** 0.06
13831 C 13.839466708233658 30.448513540012044 86.26066302152103 C 0.0 **** -0.24
13832 H 14.424271442250216 31.356110812440704 86.11384294272074 H 0.0 **** 0.06
13833 H 14.477658218563846 29.66784976303859 86.67545847995478 H 0.0 **** 0.06
13834 H 13.437200230792257 30.117448655618176 85.30320686318436 H 0.0 **** 0.06
13835 H 13.019351345465708 30.65163442231841 86.94887827283333 H 0.0 **** 0.06
13836 C 33.657292739984086 99.08785825365072 66.42744032168233 C 0.0 **** -0.24
13837 H 34.197431744017535 99.84656428844045 66.99337190113059 H 0.0 **** 0.06
13838 H 32.622136282732924 99.40361250568685 66.29205562168733 H 0.0 **** 0.06
13839 H 33.68191587849748 98.14305948383907 66.97069401087995 H 0.0 **** 0.06
13840 H 34.12851836816253 98.9584870759657 65.45253307417175 H 0.0 **** 0.06
13841 C 46.89447235470948 0.2535463433606484 8.031778906799502 C 0.0 **** -0.24
13842 H 47.054291040303724 -0.812288020557844 8.192883315005702 H 0.0 **** 0.06
13843 H 47.82832443180729 0.7907533473292183 8.20044888583638 H 0.0 **** 0.06
13844 H 46.13593367650873 0.6163852743692786 8.72563737559068 H 0.0 **** 0.06
13845 H 46.55937146867387 0.4203285945841966 7.0082528331877825 H 0.0 **** 0.06
13846 C 97.77021212309586 42.48879314283192 23.774308658578832 C 0.0 **** -0.24
13847 H 97.88805729568236 43.572193905698896 23.771015427584928 H 0.0 **** 0.06
13848 H 97.53308953986453 42.146698519225595 22.76703525786496 H 0.0 **** 0.06
13849 H 96.96083812208957 42.21423579984224 24.451357848591556 H 0.0 **** 0.06
13850 H 98.69757184552742 42.024120958423794 24.10796600553232 H 0.0 **** 0.06
13851 C 114.52356417887341 117.55344602975865 20.3795304922468 C 0.0 **** -0.24
13852 H 113.52189095108176 117.97731741990899 20.304868673739662 H 0.0 **** 0.06
13853 H 114.47824527500558 116.48095747066587 20.19240216742807 H 0.0 **** 0.06
13854 H 114.92014963294557 117.73239158869104 21.37832825119564 H 0.0 **** 0.06
13855 H 115.17264319079868 118.02451312402735 19.640222777800076 H 0.0 **** 0.06
13856 C 95.51391939836611 118.65208510683482 34.29895382311531 C 0.0 **** -0.24
13857 H 96.27366132116398 119.12544627330816 34.920062448621024 H 0.0 **** 0.06
13858 H 95.73465636002521 117.58913661235593 34.20194220110355 H 0.0 **** 0.06
13859 H 95.51204802542057 119.11511259883903 33.311904867039004 H 0.0 **** 0.06
13860 H 94.53484241994906 118.77996992547853 34.76206114280603 H 0.0 **** 0.06
13861 C 98.3583580451969 117.4180468379214 30.621946976743573 C 0.0 **** -0.24
13862 H 97.87789773029345 118.16680087244391 29.991776460665108 H 0.0 **** 0.06
13863 H 98.41386473736239 117.78746322098654 31.646873425210003 H 0.0 **** 0.06
13864 H 99.36487501239665 117.22304164191874 30.251061320353983 H 0.0 **** 0.06
13865 H 97.77770424704983 116.49595377078991 30.597923967496854 H 0.0 **** 0.06
13866 C 31.242177449075598 106.14021352789413 18.894568605007407 C 0.0 **** -0.24
13867 H 31.26439720364192 107.23010606903517 18.88417043814576 H 0.0 **** 0.06
13868 H 30.208063689078983 105.79801761228714 18.924253838560503 H 0.0 **** 0.06
13869 H 31.77249218479409 105.77406814546976 19.774200041789356 H 0.0 **** 0.06
13870 H 31.72552083104779 105.7594588893175 17.99453044893542 H 0.0 **** 0.06
13871 C 12.627192281027146 96.58183811327544 110.68022673168649 C 0.0 **** -0.24
13872 H 13.14054768706212 96.21127920768365 109.79304079589036 H 0.0 **** 0.06
13873 H 11.653565805794884 96.98149096142555 110.39490636074618 H 0.0 **** 0.06
13874 H 13.222761693011975 97.36976838440262 111.14195562330194 H 0.0 **** 0.06
13875 H 12.491718338574916 95.76490025969304 111.38877659221052 H 0.0 **** 0.06
13876 C 116.44367710922845 87.85108529512942 110.1579925516396 C 0.0 **** -0.24
13877 H 116.93299939900933 88.14824278255182 111.08559197926392 H 0.0 **** 0.06
13878 H 115.95552565920295 86.88590003261899 110.2975390062827 H 0.0 **** 0.06
13879 H 117.1884563494487 87.77080293217008 109.36542125169203 H 0.0 **** 0.06
13880 H 115.69990864591244 88.59893783503153 109.88324064058796 H 0.0 **** 0.06
13881 C 6.23082940436143 71.7581447236862 105.40996569382594 C 0.0 **** -0.24
13882 H 6.922239310217623 71.72732139794755 106.25149393408338 H 0.0 **** 0.06
13883 H 5.496830467571346 70.95845687982785 105.5141796167172 H 0.0 **** 0.06
13884 H 6.784414760946941 71.62454792187134 104.48038851292486 H 0.0 **** 0.06
13885 H 5.720452504074057 72.72119136218816 105.394500712856 H 0.0 **** 0.06
13886 C 9.876774295767337 73.34461662885741 43.821411176814536 C 0.0 **** -0.24
13887 H 10.22943487185838 73.55016932227588 44.83207935960877 H 0.0 **** 0.06
13888 H 9.005491858088615 72.69077674252046 43.866086866706894 H 0.0 **** 0.06
13889 H 10.668405965335413 72.85658856466486 43.25258651513292 H 0.0 **** 0.06
13890 H 9.60466633084625 74.28089221471129 43.33446165912119 H 0.0 **** 0.06
13891 C 95.43376460652664 86.71652153058963 88.61616426478827 C 0.0 **** -0.24
13892 H 94.87052388978378 87.64955400470865 88.63129243558643 H 0.0 **** 0.06
13893 H 95.2383232436355 86.18904764305691 87.68337037071683 H 0.0 **** 0.06
13894 H 95.12804851676242 86.09468167914142 89.45736841447831 H 0.0 **** 0.06
13895 H 96.49944308770174 86.93465611497263 88.69460738714224 H 0.0 **** 0.06
13896 C 92.82933260842864 64.01895924511237 104.89327698291683 C 0.0 **** -0.24
13897 H 93.049539713326 65.07589466799371 105.04300976961838 H 0.0 **** 0.06
13898 H 92.35181537788512 63.88190806248162 103.92350804774722 H 0.0 **** 0.06
13899 H 92.15892544900163 63.673122117048784 105.68160662957214 H 0.0 **** 0.06
13900 H 93.75593188904168 63.44629048302006 104.92795853426603 H 0.0 **** 0.06
13901 C 3.2013125664207394 66.76143114862828 117.31719108136652 C 0.0 **** -0.24
13902 H 3.286604921004866 65.75015095645196 116.92001463003349 H 0.0 **** 0.06
13903 H 4.189635724868623 67.12532287330566 117.598265310479 H 0.0 **** 0.06
13904 H 2.554088645360082 66.752794314281 118.1944186423178 H 0.0 **** 0.06
13905 H 2.7746575736499324 67.41568568684559 116.55695751078014 H 0.0 **** 0.06
13906 C 18.575850874095188 118.43201903627283 49.38402570567544 C 0.0 **** -0.24
13907 H 19.067669443435317 118.34464308239168 48.41469007390492 H 0.0 **** 0.06
13908 H 19.160807157490733 117.90450133036727 50.13708264440342 H 0.0 **** 0.06
13909 H 17.578572902450333 117.99411628585106 49.3249960736554 H 0.0 **** 0.06
13910 H 18.494025387967643 119.48478805148842 49.656405265142666 H 0.0 **** 0.06
13911 C 32.22749228842642 17.30047826328746 71.01017426825425 C 0.0 **** -0.24
13912 H 33.20329535872028 17.07115482962493 70.58147539141447 H 0.0 **** 0.06
13913 H 32.08349183710678 16.718118332238305 71.91951868754501 H 0.0 **** 0.06
13914 H 31.447414526364128 17.050579062157595 70.29019946606698 H 0.0 **** 0.06
13915 H 32.17564468230563 18.36311601541206 71.24669781211651 H 0.0 **** 0.06
13916 C 64.27669143343775 16.647539113800974 11.90354396285986 C 0.0 **** -0.24
13917 H 64.66145482199892 16.425136783490984 12.89823830708093 H 0.0 **** 0.06
13918 H 63.84145663480397 17.64750189928003 11.89723978955347 H 0.0 **** 0.06
13919 H 63.51341204040636 15.917254670147827 11.637005595121764 H 0.0 **** 0.06
13920 H 65.09104943653296 16.601916837969327 11.180314930853278 H 0.0 **** 0.06
13921 C 51.66266305261695 33.44043312469228 63.65246992437077 C 0.0 **** -0.24
13922 H 52.59926718534655 32.902672614363496 63.504196802577106 H 0.0 **** 0.06
13923 H 51.54080156717555 34.18154858647051 62.861588575914745 H 0.0 **** 0.06
13924 H 51.680196923249525 33.94089818122052 64.62044814696935 H 0.0 **** 0.06
13925 H 50.8318545466787 32.735606098061396 63.622292973203194 H 0.0 **** 0.06
13926 C 113.63865893263375 28.0363548754176 65.26832418386311 C 0.0 **** -0.24
13927 H 113.69728032247849 27.896316049064183 66.34805020146564 H 0.0 **** 0.06
13928 H 112.92373724356642 27.327994334123616 64.84899981364953 H 0.0 **** 0.06
13929 H 114.6201245096652 27.86764861609757 64.82690714798582 H 0.0 **** 0.06
13930 H 113.31180980894868 29.053955365636426 65.05177273910547 H 0.0 **** 0.06
13931 C 7.435192350203511 49.33858805145425 85.71045131796214 C 0.0 **** -0.24
13932 H 7.47691957344006 49.587612184042655 86.77095610734946 H 0.0 **** 0.06
13933 H 6.397635300149579 49.345739927354856 85.37552322740319 H 0.0 **** 0.06
13934 H 7.861773064344234 48.34809521903634 85.55289371277286 H 0.0 **** 0.06
13935 H 8.005173948881868 50.073474515458145 85.14205935303113 H 0.0 **** 0.06
13936 C 0.4066975705456528 71.22420171301843 78.54101561804114 C 0.0 **** -0.24
13937 H -0.03761717761157968 71.7465121837829 79.38847934259383 H 0.0 **** 0.06
13938 H 1.151489193108862 70.51535588861344 78.90173234628975 H 0.0 **** 0.06
13939 H 0.8823500042026584 71.94730710656827 77.87859285927473 H 0.0 **** 0.06
13940 H -0.3707813522956602 70.68967267705307 77.99667683602473 H 0.0 **** 0.06
13941 C 22.8149271245083 116.19104634017197 73.88456458745782 C 0.0 **** -0.24
13942 H 23.187321002266458 115.16700345969247 73.8556068167552 H 0.0 **** 0.06
13943 H 22.28696171574512 116.35892352630677 74.82454197357629 H 0.0 **** 0.06
13944 H 22.13277614987237 116.35269872110457 73.05081040472453 H 0.0 **** 0.06
13945 H 23.652232929488548 116.88409887542025 73.80922083088342 H 0.0 **** 0.06
13946 C 76.38853999818483 111.43305891229643 99.52967334474116 C 0.0 **** -0.24
13947 H 76.37012831297173 110.76204392197346 100.38776913956201 H 0.0 **** 0.06
13948 H 76.18462605930091 112.45114053489675 99.86040502833637 H 0.0 **** 0.06
13949 H 75.62884464350941 111.12419415597834 98.81151659986182 H 0.0 **** 0.06
13950 H 77.3707683690063 111.39388717470192 99.05887448819794 H 0.0 **** 0.06
13951 C 111.00684621494463 82.65686356787154 78.38813067857348 C 0.0 **** -0.24
13952 H 111.46516510843014 83.34979320934241 77.68201460146037 H 0.0 **** 0.06
13953 H 111.58570118788981 81.73278002771323 78.41882608957525 H 0.0 **** 0.06
13954 H 109.98743057291563 82.43779741528078 78.07176808463296 H 0.0 **** 0.06
13955 H 110.99018259712841 83.10812428736688 79.38076189013404 H 0.0 **** 0.06
13956 C 84.58383320892219 99.46046689801398 117.022143630526 C 0.0 **** -0.24
13957 H 84.16602663048226 100.35634918781969 116.56310644012623 H 0.0 **** 0.06
13958 H 85.58599394358453 99.67541799381368 117.39252915249172 H 0.0 **** 0.06
13959 H 84.63257742605518 98.66256745525212 116.2811415726183 H 0.0 **** 0.06
13960 H 83.94812791461456 99.14825428873095 117.85049960185694 H 0.0 **** 0.06
13961 C 3.6441769251443006 118.4069027880303 74.2863154870538 C 0.0 **** -0.24
13962 H 2.9599273766494534 117.76050299171624 73.73719218892228 H 0.0 **** 0.06
13963 H 4.043378553401833 117.86560081192067 75.14446165165629 H 0.0 **** 0.06
13964 H 3.110178223046418 119.29212673935899 74.63155671210546 H 0.0 **** 0.06
13965 H 4.462998967193862 118.70695317791132 73.63229117198165 H 0.0 **** 0.06
13966 C 92.77989473179116 117.90440128653336 17.27749942319616 C 0.0 **** -0.24
13967 H 92.62133542288842 116.8267700386389 17.317102481918084 H 0.0 **** 0.06
13968 H 93.81757908003888 118.1094313168798 17.015527265517306 H 0.0 **** 0.06
13969 H 92.55720636493166 118.33978541369054 18.25103732866785 H 0.0 **** 0.06
13970 H 92.12198524977927 118.34009800575592 16.525097873820584 H 0.0 **** 0.06
13971 C 71.42611359113567 72.7295740399731 50.72387167203168 C 0.0 **** -0.24
13972 H 72.47781975032035 72.7760726059087 51.0054095428768 H 0.0 **** 0.06
13973 H 70.8971669681871 73.58179033425628 51.15121516484116 H 0.0 **** 0.06
13974 H 70.98972420173311 71.8037534700621 51.09893853443945 H 0.0 **** 0.06
13975 H 71.34013563118799 72.75682744104336 49.63695277201761 H 0.0 **** 0.06
13976 C 50.660556443325945 13.344196584950812 29.62592491304497 C 0.0 **** -0.24
13977 H 50.94281432727564 12.32168710424888 29.374832447508822 H 0.0 **** 0.06
13978 H 51.22913458968128 14.040272575095763 29.00923805828421 H 0.0 **** 0.06
13979 H 50.87403354013537 13.531840071368446 30.678280379653472 H 0.0 **** 0.06
13980 H 49.594670054634506 13.482156824090701 29.440434123475598 H 0.0 **** 0.06
13981 C 84.78085255570738 116.58225889966755 9.300274111730914 C 0.0 **** -0.24
13982 H 85.64987955237075 116.298358377042 8.705157945812005 H 0.0 **** 0.06
13983 H 84.46214154503983 117.58586959728962 9.020216299441614 H 0.0 **** 0.06
13984 H 85.044300561493 116.56543271643756 10.357557689532797 H 0.0 **** 0.06
13985 H 83.9700845205993 115.87789295172132 9.116482587850385 H 0.0 **** 0.06
13986 C 34.68262380176428 29.342259999523435 37.07997461160852 C 0.0 **** -0.24
13987 H 35.19148172692228 28.668868095788298 37.769427658523924 H 0.0 **** 0.06
13988 H 35.41851399047807 29.966213740591627 36.57187424551 H 0.0 **** 0.06
13989 H 33.990599583235905 29.97560943207128 37.63499312017362 H 0.0 **** 0.06
13990 H 34.13071955125469 28.759084989034136 36.34271673086435 H 0.0 **** 0.06
13991 C 71.23627018633465 72.35174603129931 45.057630224435115 C 0.0 **** -0.24
13992 H 70.54565071999335 71.54794642702973 45.313629338378405 H 0.0 **** 0.06
13993 H 72.14996506935472 72.24434090597848 45.6433711645268 H 0.0 **** 0.06
13994 H 70.7733976956417 73.31322724936928 45.27832334371078 H 0.0 **** 0.06
13995 H 71.47716140959042 72.29900339491883 43.99604641584881 H 0.0 **** 0.06
13996 C 103.5946853218461 82.6703061515949 79.71795132802143 C 0.0 **** -0.24
13997 H 102.84174846352991 81.90136920770567 79.89114670080863 H 0.0 **** 0.06
13998 H 104.45537816984145 82.48687624237027 80.36211507596855 H 0.0 **** 0.06
13999 H 103.17256009714208 83.64878151208876 79.94448777918026 H 0.0 **** 0.06
14000 H 103.90863585425632 82.64267557921136 78.67476862492438 H 0.0 **** 0.06
14001 C 98.3001331979786 94.62313472966406 22.675068183448623 C 0.0 **** -0.24
14002 H 97.48161804532708 94.40703296066269 21.987774509382543 H 0.0 **** 0.06
14003 H 97.90008375997687 94.78193594909305 23.677474440724566 H 0.0 **** 0.06
14004 H 98.8226508231601 95.52093269871477 22.34572691070229 H 0.0 **** 0.06
14005 H 98.99381219188001 93.78326380947553 22.68927319531783 H 0.0 **** 0.06
14006 C 40.35829135095031 39.66192604200012 11.198117149902743 C 0.0 **** -0.24
14007 H 41.345209867013494 39.92858182105306 10.817782816878804 H 0.0 **** 0.06
14008 H 39.85511218022609 39.014942611442535 10.47927449958803 H 0.0 **** 0.06
14009 H 39.77030228495431 40.56711672184329 11.347131290202526 H 0.0 **** 0.06
14010 H 40.46461305179591 39.137071762700714 12.146973404673105 H 0.0 **** 0.06
14011 C 22.472504159822194 85.2047889455024 79.94108605532716 C 0.0 **** -0.24
14012 H 21.40284551516126 85.14580392406972 80.1426244635272 H 0.0 **** 0.06
14013 H 22.96920036977096 84.33013100775557 80.36121216045444 H 0.0 **** 0.06
14014 H 22.877888745217717 86.10726691861166 80.39729033663204 H 0.0 **** 0.06
14015 H 22.637350966532352 85.23516756586517 78.86460420728315 H 0.0 **** 0.06
14016 C 46.24819470340685 56.19385546038808 59.25432559796991 C 0.0 **** -0.24
14017 H 46.89998417332151 56.3873027945221 60.10578266323586 H 0.0 **** 0.06
14018 H 45.33176731234373 55.7143325981873 59.59935642734632 H 0.0 **** 0.06
14019 H 46.75802808195948 55.53885278494346 58.547705473474934 H 0.0 **** 0.06
14020 H 46.00234440198017 57.136106345711084 58.76401498045476 H 0.0 **** 0.06
14021 C 1.634316862027255 54.91893727997456 107.30040129307469 C 0.0 **** -0.24
14022 H 1.8100435007517408 55.99417722868321 107.25333924128853 H 0.0 **** 0.06
14023 H 0.9528887806227981 54.698884961952615 108.12216787452309 H 0.0 **** 0.06
14024 H 2.580926119459738 54.40357096872259 107.46350879850769 H 0.0 **** 0.06
14025 H 1.1947458332784056 54.58149738225302 106.36185284622604 H 0.0 **** 0.06
14026 C 40.84818204753168 77.77169303183535 95.21195276326324 C 0.0 **** -0.24
14027 H 39.824400378615564 77.49607381075145 95.46450116514944 H 0.0 **** 0.06
14028 H 41.27045776808015 77.02228818204156 94.5419332113321 H 0.0 **** 0.06
14029 H 41.445348638341045 77.82266624347034 96.12246436211825 H 0.0 **** 0.06
14030 H 40.85249004233469 78.74401957685961 94.71907335025497 H 0.0 **** 0.06
14031 C 87.06049727847346 92.37922567423394 45.31547979764241 C 0.0 **** -0.24
14032 H 86.1316401774256 92.18793099202264 44.776469125238464 H 0.0 **** 0.06
14033 H 87.89286716693874 92.38150348672377 44.61207755049551 H 0.0 **** 0.06
14034 H 87.21441953671047 91.59942274919013 46.06088161217002 H 0.0 **** 0.06
14035 H 86.9996157311046 93.34819454079164 45.810465972922145 H 0.0 **** 0.06
14036 C 82.85459713734818 86.41935055487829 11.550190137913166 C 0.0 **** -0.24
14037 H 82.7509736750439 87.35858190235675 12.092241004350825 H 0.0 **** 0.06
14038 H 81.9775158459671 86.26459776045402 10.919921395138598 H 0.0 **** 0.06
14039 H 82.94209825862464 85.59714815446665 12.260267825871658 H 0.0 **** 0.06
14040 H 83.74836240932777 86.45736895324143 10.925964284861802 H 0.0 **** 0.06
14041 C 37.01545060197577 34.965225866005596 32.210019022137146 C 0.0 **** -0.24
14042 H 36.035661777537825 34.728023006248236 32.62382718554511 H 0.0 **** 0.06
14043 H 37.37134663912133 34.12508327633191 31.612637165192496 H 0.0 **** 0.06
14044 H 37.716299275771576 35.156542602662455 33.022476158708855 H 0.0 **** 0.06
14045 H 36.93844204542711 35.85233359182041 31.580222850313817 H 0.0 **** 0.06
14046 C 57.06139566020081 96.29439677708649 64.00481093160218 C 0.0 **** -0.24
14047 H 57.9270568550911 96.74767788789433 64.48743964979346 H 0.0 **** 0.06
14048 H 56.14966107135853 96.6555239803784 64.48048491888323 H 0.0 **** 0.06
14049 H 57.117967089028745 95.20985098785007 64.10235437633224 H 0.0 **** 0.06
14050 H 57.0522338696531 96.5646239381685 62.94851033157466 H 0.0 **** 0.06
14051 C 10.985691657136854 107.23193353297259 32.65070537314347 C 0.0 **** -0.24
14052 H 11.62961510589886 106.53597684241876 33.188748557792366 H 0.0 **** 0.06
14053 H 10.943217206598757 106.94786623726543 31.59904369536379 H 0.0 **** 0.06
14054 H 11.387004852464479 108.24137762515807 32.73962052065508 H 0.0 **** 0.06
14055 H 9.981798713731678 107.20050686976887 33.076242675598564 H 0.0 **** 0.06
14056 C 84.55653243494586 88.77147267162721 94.90180287365362 C 0.0 **** -0.24
14057 H 85.243328750361 89.61398327710103 94.8281197541622 H 0.0 **** 0.06
14058 H 83.79102592738658 88.99078530171462 95.6457499782023 H 0.0 **** 0.06
14059 H 85.10735133196002 87.87892002743402 95.19923171127618 H 0.0 **** 0.06
14060 H 84.08515711234492 88.60190906407362 93.93349657683373 H 0.0 **** 0.06
14061 C 116.0946362331002 37.52814968968055 86.55506816568649 C 0.0 **** -0.24
14062 H 115.11645161780218 37.650841177293316 87.02005873246455 H 0.0 **** 0.06
14063 H 116.43591992554595 36.502308005486405 86.69402445860882 H 0.0 **** 0.06
14064 H 116.80580620046405 38.21319149726223 87.01764207579325 H 0.0 **** 0.06
14065 H 116.02033575160448 37.746057991401436 85.48994707223946 H 0.0 **** 0.06
14066 C 63.228338020238404 45.88029112253986 27.702768430201417 C 0.0 **** -0.24
14067 H 63.234692428804415 46.502423454843324 26.80659563687476 H 0.0 **** 0.06
14068 H 62.914560180143646 44.870395921912646 27.440614544947238 H 0.0 **** 0.06
14069 H 62.5351539325331 46.30040322125035 28.431172290120685 H 0.0 **** 0.06
14070 H 64.23045650311883 45.85106510905166 28.130463357357954 H 0.0 **** 0.06
14071 C 63.15990844170784 62.49476658705922 43.18105037359618 C 0.0 **** -0.24
14072 H 62.219508077357915 62.950398515575216 42.87036356706545 H 0.0 **** 0.06
14073 H 63.89202796387593 62.58870234924851 42.37805801005618 H 0.0 **** 0.06
14074 H 62.99699187278418 61.44050524936938 43.40429413646564 H 0.0 **** 0.06
14075 H 63.530787963402304 63.001645326396726 44.072546284960936 H 0.0 **** 0.06
14076 C 74.97468091093657 76.59520876810018 19.080723282134272 C 0.0 **** -0.24
14077 H 74.07079589682337 76.8253017688294 18.517249570678928 H 0.0 **** 0.06
14078 H 75.5908622068088 75.8999305562578 18.509440981381033 H 0.0 **** 0.06
14079 H 74.70391739213258 76.14102378694739 20.03366486749877 H 0.0 **** 0.06
14080 H 75.53405957366547 77.51320335551668 19.261028633992964 H 0.0 **** 0.06
14081 C 81.78407697171116 80.57822512062711 50.76404965418931 C 0.0 **** -0.24
14082 H 81.44136731332438 79.84113611550282 51.48943602672745 H 0.0 **** 0.06
14083 H 81.36873415620846 81.55484732506548 51.01567054584628 H 0.0 **** 0.06
14084 H 81.45334312863662 80.28937726860804 49.76704236293445 H 0.0 **** 0.06
14085 H 82.87263021053207 80.62955132642085 50.78542797007961 H 0.0 **** 0.06
14086 C 107.40310430146559 30.07561575195922 17.61247057645025 C 0.0 **** -0.24
14087 H 107.52635142434352 28.994300502052567 17.542619899668182 H 0.0 **** 0.06
14088 H 107.35896464144332 30.50133017495 16.609582476892342 H 0.0 **** 0.06
14089 H 108.24755939558707 30.5020740556144 18.152693125854967 H 0.0 **** 0.06
14090 H 106.47913778824241 30.301217459358952 18.144438894954817 H 0.0 **** 0.06
14091 C 35.730581445855634 18.855734200484676 27.613904589559013 C 0.0 **** -0.24
14092 H 36.116012643226426 17.84695628464931 27.468269989691947 H 0.0 **** 0.06
14093 H 34.7443716018037 18.936527715407124 27.158177647374345 H 0.0 **** 0.06
14094 H 36.40677869317632 19.57334266545263 27.148129961310644 H 0.0 **** 0.06
14095 H 35.65655842471635 19.066054145634553 28.681262885959825 H 0.0 **** 0.06
14096 C 11.802961098866518 29.790168659553473 7.458657500007114 C 0.0 **** -0.24
14097 H 12.052058391344929 29.37462602147039 6.481896288576795 H 0.0 **** 0.06
14098 H 11.67687712405629 30.869213553650823 7.3731502810856995 H 0.0 **** 0.06
14099 H 12.607957210024267 29.572434511008737 8.161255341941494 H 0.0 **** 0.06
14100 H 10.87627838915941 29.341944754286047 7.817228360921895 H 0.0 **** 0.06
14101 C 58.66040584720679 89.99927995689762 36.6204510370483 C 0.0 **** -0.24
14102 H 58.49411310042228 90.91989206048794 36.06107759746337 H 0.0 **** 0.06
14103 H 58.65728535863394 90.2169468102154 37.68878900312248 H 0.0 **** 0.06
14104 H 59.62246459281914 89.57176956289578 36.33800918138667 H 0.0 **** 0.06
14105 H 57.86601176648003 89.28803777129662 36.39227956841708 H 0.0 **** 0.06
14106 C 23.312475057443763 110.97396919659747 22.10587769890597 C 0.0 **** -0.24
14107 H 23.82542939785771 111.49662820386543 21.298975639164865 H 0.0 **** 0.06
14108 H 23.40982895795662 111.54666922376686 23.029288542512916 H 0.0 **** 0.06
14109 H 23.757532686712864 109.98799150683493 22.24138526225468 H 0.0 **** 0.06
14110 H 22.257096106243324 110.86447974309803 21.855590026630153 H 0.0 **** 0.06
14111 C 75.18043481251323 47.67275224775662 22.791113934744317 C 0.0 **** -0.24
14112 H 75.76943627860987 47.85398371285305 23.69062938467289 H 0.0 **** 0.06
14113 H 75.74252065359121 47.030182398936574 22.11362515271776 H 0.0 **** 0.06
14114 H 74.96798861029924 48.6219755896318 22.299307851541784 H 0.0 **** 0.06
14115 H 74.24442083940687 47.18650955705357 23.061527165026973 H 0.0 **** 0.06
14116 C 41.66977970227151 25.415463701260364 84.42659186269171 C 0.0 **** -0.24
14117 H 41.661525938725816 26.5047710344177 84.39998480638042 H 0.0 **** 0.06
14118 H 42.65896104655533 25.06737581273279 84.72467017827705 H 0.0 **** 0.06
14119 H 41.429678943030325 25.026464426664404 83.43757330783535 H 0.0 **** 0.06
14120 H 40.92896737554375 25.06406948106985 85.1452870754639 H 0.0 **** 0.06
14121 C 35.3998970252818 43.98482593344805 110.7791365987261 C 0.0 **** -0.24
14122 H 35.4213884873559 43.45001543870173 111.72844234262834 H 0.0 **** 0.06
14123 H 34.538819920405786 44.6543050686118 110.75857955665396 H 0.0 **** 0.06
14124 H 35.32257809323289 43.269244556969355 109.96033829213951 H 0.0 **** 0.06
14125 H 36.31466829998294 44.56611170299809 110.66862927504962 H 0.0 **** 0.06
14126 C 22.14953052576834 10.17251636776717 54.70056773281908 C 0.0 **** -0.24
14127 H 21.527931733316052 9.61401563939733 55.40088015203903 H 0.0 **** 0.06
14128 H 21.851415014638746 9.931374941169633 53.67943913236226 H 0.0 **** 0.06
14129 H 23.194965370327168 9.90181408914097 54.8476113172502 H 0.0 **** 0.06
14130 H 22.022692127529865 11.24007730173474 54.87439557452419 H 0.0 **** 0.06
14131 C 45.45448868788412 84.69266723301095 38.729150172515375 C 0.0 **** -0.24
14132 H 45.437187277541796 83.61893851848339 38.915082574687055 H 0.0 **** 0.06
14133 H 46.30746260936672 84.93686570885922 38.09589021838081 H 0.0 **** 0.06
14134 H 45.54160079176887 85.22293294475213 39.67675570487652 H 0.0 **** 0.06
14135 H 44.533302911419696 84.98923649676095 38.22929628784946 H 0.0 **** 0.06
14136 C 63.69675299404571 28.677254663391253 50.67249647057148 C 0.0 **** -0.24
14137 H 63.73418729306701 29.561272511531158 50.03570317306078 H 0.0 **** 0.06
14138 H 63.46091344780319 27.801972773647634 50.065644756643614 H 0.0 **** 0.06
14139 H 62.92847453009057 28.810105960333544 51.434172452184136 H 0.0 **** 0.06
14140 H 64.66472249530307 28.53514859316803 51.15418676737036 H 0.0 **** 0.06
14141 C 67.49703265775622 73.62638376214835 42.87629863344985 C 0.0 **** -0.24
14142 H 66.91088846996541 74.468031022648 42.50709888060893 H 0.0 **** 0.06
14143 H 68.54707472655073 73.77701609144816 42.62482070444066 H 0.0 **** 0.06
14144 H 67.14109691357322 72.7060848064867 42.41343457713825 H 0.0 **** 0.06
14145 H 67.38818552758408 73.55462121102317 43.95836748253126 H 0.0 **** 0.06
14146 C 84.75594564801702 37.47510665990401 47.540149344006295 C 0.0 **** -0.24
14147 H 83.73224663377181 37.81690022123593 47.390149307750164 H 0.0 **** 0.06
14148 H 85.13846244961849 37.87388159806158 48.47971467736471 H 0.0 **** 0.06
14149 H 85.37969936131904 37.823046425929924 46.71608086444988 H 0.0 **** 0.06
14150 H 84.77338742841215 36.38517770925343 47.573244793676 H 0.0 **** 0.06
14151 C 108.8313627648835 33.20466845979523 103.97810306516527 C 0.0 **** -0.24
14152 H 108.5613209880078 32.30733327333136 104.53629628026493 H 0.0 **** 0.06
14153 H 108.5830638440112 34.08697808647934 104.56902438693436 H 0.0 **** 0.06
14154 H 108.27908953110801 33.22809690376033 103.0391739430899 H 0.0 **** 0.06
14155 H 109.901626146315 33.19483538120207 103.77120891454337 H 0.0 **** 0.06
14156 C 104.60375971061936 41.04129329638312 102.04649633263702 C 0.0 **** -0.24
14157 H 104.84741237371907 41.749371593907256 102.83809599835283 H 0.0 **** 0.06
14158 H 105.45064780323543 40.373813010958884 101.88326560029199 H 0.0 **** 0.06
14159 H 104.38646189261135 41.58486102035005 101.12637273888708 H 0.0 **** 0.06
14160 H 103.73051677291156 40.45712756031605 102.33825099301629 H 0.0 **** 0.06
14161 C 96.02837237583697 55.64123358009019 47.84772204612 C 0.0 **** -0.24
14162 H 96.89870543982363 56.287479426599305 47.96233548964909 H 0.0 **** 0.06
14163 H 95.66648851816603 55.69929140318152 46.82163585181269 H 0.0 **** 0.06
14164 H 95.24311896384438 55.965665273457034 48.530418696028164 H 0.0 **** 0.06
14165 H 96.3080035040972 54.613342118664576 48.07704300102802 H 0.0 **** 0.06
14166 C 101.12547494198935 0.3113718404757009 113.41497946679515 C 0.0 **** -0.24
14167 H 100.55580153550557 -0.6068250709419516 113.26976154051916 H 0.0 **** 0.06
14168 H 100.66893064105614 1.1153129162087936 112.83753022828228 H 0.0 **** 0.06
14169 H 102.15117557816998 0.15986800137550006 113.07940930603047 H 0.0 **** 0.06
14170 H 101.12446892194029 0.5757809644586018 114.47229132043645 H 0.0 **** 0.06
14171 C 94.026569596548 95.74781801127023 47.491559018883265 C 0.0 **** -0.24
14172 H 93.00130513706259 96.11881292678095 47.470364741137814 H 0.0 **** 0.06
14173 H 94.4294462378528 95.85304791653476 48.49899172627693 H 0.0 **** 0.06
14174 H 94.63477415624376 96.32245397602298 46.793619021268995 H 0.0 **** 0.06
14175 H 94.03799527906193 94.69656742931497 47.20375485598058 H 0.0 **** 0.06
14176 C 73.32268094933818 61.6167501707132 102.2784149082405 C 0.0 **** -0.24
14177 H 72.77579631445235 61.0214096597484 101.54682384856272 H 0.0 **** 0.06
14178 H 72.91167031824267 61.43868336987575 103.27256182662293 H 0.0 **** 0.06
14179 H 73.22715134558837 62.67438262647778 102.02999524323332 H 0.0 **** 0.06
14180 H 74.37468280213716 61.33320218712049 102.26304716638018 H 0.0 **** 0.06
14181 C 111.53179040409336 53.79031846579423 16.44059485509254 C 0.0 **** -0.24
14182 H 111.99044474858536 54.69755172549108 16.83496349528366 H 0.0 **** 0.06
14183 H 112.29205850087612 53.01555702692389 16.33624561212048 H 0.0 **** 0.06
14184 H 111.09180495237047 54.00125770346074 15.466612858975424 H 0.0 **** 0.06
14185 H 110.75496696799195 53.449462198014345 17.124476334530073 H 0.0 **** 0.06
14186 C 118.78555761522128 12.679840075288887 53.70265345589553 C 0.0 **** -0.24
14187 H 119.80193198460788 13.051470956648803 53.83052902807597 H 0.0 **** 0.06
14188 H 118.1351965900214 13.499901205032163 53.39683340765595 H 0.0 **** 0.06
14189 H 118.42919568332957 12.264571487001856 54.645621521752844 H 0.0 **** 0.06
14190 H 118.77590620292602 11.903416652472703 52.937629866097126 H 0.0 **** 0.06
14191 C 84.74229587292575 98.94369279516155 110.74407960783634 C 0.0 **** -0.24
14192 H 85.32225247607337 98.63584502373931 111.61437765037971 H 0.0 **** 0.06
14193 H 83.87682244310156 98.28985181588138 110.63555173739968 H 0.0 **** 0.06
14194 H 85.36357042288495 98.87596755614481 109.85127796744041 H 0.0 **** 0.06
14195 H 84.40688735416546 99.97184320363868 110.8766215902366 H 0.0 **** 0.06
14196 C 87.66797321429775 42.458060837877966 111.35137225981701 C 0.0 **** -0.24
14197 H 88.03383975130771 43.47812325563976 111.46554699570964 H 0.0 **** 0.06
14198 H 87.43574642848802 42.27225067849917 110.30188334704688 H 0.0 **** 0.06
14199 H 86.76816372120769 42.32471460170502 111.95212199181144 H 0.0 **** 0.06
14200 H 88.43389839120303 41.757455697889895 111.68373444435016 H 0.0 **** 0.06
14201 C 13.242150585553919 16.751989039722275 99.98918392025078 C 0.0 **** -0.24
14202 H 12.905112854593643 16.485974795780095 98.98700948692104 H 0.0 **** 0.06
14203 H 14.301229781330207 17.010975063462865 99.95963475381492 H 0.0 **** 0.06
14204 H 13.092442118830135 15.905993062687628 100.65911875489155 H 0.0 **** 0.06
14205 H 12.669502961462257 17.606463494087507 100.34963179053531 H 0.0 **** 0.06
14206 C 100.48134882888823 25.709266767099223 107.63146019049626 C 0.0 **** -0.24
14207 H 100.67039375374534 26.10064693474625 108.63015035483585 H 0.0 **** 0.06
14208 H 99.72529719320053 24.925384438642766 107.68524717622967 H 0.0 **** 0.06
14209 H 101.40316604924399 25.29783441974618 107.22075959227524 H 0.0 **** 0.06
14210 H 100.12486348429013 26.513932892996394 106.9880526836119 H 0.0 **** 0.06
14211 C 92.09382619193121 43.48945593696165 43.42108220361939 C 0.0 **** -0.24
14212 H 92.64966388139356 43.84754715442918 42.55392721569925 H 0.0 **** 0.06
14213 H 91.19009996491181 42.979618654139784 43.086770314160376 H 0.0 **** 0.06
14214 H 91.82276145844727 44.33500738700523 44.052851301765884 H 0.0 **** 0.06
14215 H 92.71373816370408 42.79624929526426 43.989129942255886 H 0.0 **** 0.06
14216 C 107.13469733811695 44.816808138029586 44.17624397174958 C 0.0 **** -0.24
14217 H 107.079851496088 44.92036079611094 45.25914943902569 H 0.0 **** 0.06
14218 H 106.13080507933904 44.86643372963076 43.7541347177318 H 0.0 **** 0.06
14219 H 107.58665650237873 43.85653756345684 43.925517080686404 H 0.0 **** 0.06
14220 H 107.74270873140046 45.62236563621022 43.764143436659296 H 0.0 **** 0.06
14221 C 11.572105525333598 112.00432159326162 66.96171022072144 C 0.0 **** -0.24
14222 H 12.1190616398531 112.0290849140987 66.01963521958518 H 0.0 **** 0.06
14223 H 12.228422747512184 112.32766966210818 67.77016389680853 H 0.0 **** 0.06
14224 H 11.228981827264704 110.9882251187071 67.1557814360898 H 0.0 **** 0.06
14225 H 10.713901004719446 112.6733841879264 66.90102414965833 H 0.0 **** 0.06
14226 C 77.13089061423665 69.33509947217334 96.01024428784515 C 0.0 **** -0.24
14227 H 78.19682954088807 69.29356139865604 96.2332069228732 H 0.0 **** 0.06
14228 H 76.97176258754388 69.92261218934274 95.10578661999799 H 0.0 **** 0.06
14229 H 76.60333167245179 69.80016480878442 96.84318809281959 H 0.0 **** 0.06
14230 H 76.75214966770537 68.32438146313024 95.85959254780514 H 0.0 **** 0.06
14231 C 59.739646624714595 35.3206472754452 4.763503606326193 C 0.0 **** -0.24
14232 H 59.86777854188077 36.33938517332541 4.397352150378174 H 0.0 **** 0.06
14233 H 59.09140666253663 34.76881390484675 4.080653240160682 H 0.0 **** 0.06
14234 H 59.28757244228899 35.34438778253974 5.755018047578588 H 0.0 **** 0.06
14235 H 60.71159653791196 34.82905553031259 4.818335758891331 H 0.0 **** 0.06
14236 C 0.022881207476530108 73.87787239314011 117.02074348855427 C 0.0 **** -0.24
14237 H 0.7531181696791691 74.67608130527557 116.88220408201772 H 0.0 **** 0.06
14238 H -0.35378022828433586 73.90376301394957 118.04326997129664 H 0.0 **** 0.06
14239 H 0.4981280346243011 72.91507337703035 116.83217759973724 H 0.0 **** 0.06
14240 H -0.8041726884757736 74.01774802540814 116.32462264148694 H 0.0 **** 0.06
14241 C 15.887861570369552 85.29541673035564 15.748893539994057 C 0.0 **** -0.24
14242 H 15.068963624009427 84.62129663899992 16.00040066899747 H 0.0 **** 0.06
14243 H 15.499289985447973 86.14710659836484 15.190438466475328 H 0.0 **** 0.06
14244 H 16.62034204445129 84.76510495458024 15.140305545665441 H 0.0 **** 0.06
14245 H 16.362818039161198 85.64675164898631 16.664567969281336 H 0.0 **** 0.06
14246 C 37.99879883271939 64.11867346332801 15.631455263999854 C 0.0 **** -0.24
14247 H 37.7915931216217 64.30199029251662 16.68606957292913 H 0.0 **** 0.06
14248 H 37.31221237109702 63.36074361983239 15.252560780792717 H 0.0 **** 0.06
14249 H 39.02424345638366 63.76836134086423 15.517897991518822 H 0.0 **** 0.06
14250 H 37.86614867166975 65.04358284953648 15.069226491249616 H 0.0 **** 0.06
14251 C 16.899781168220215 18.87415457895804 53.48633485773521 C 0.0 **** -0.24
14252 H 16.37664566691886 18.30927222913388 52.71532727319244 H 0.0 **** 0.06
14253 H 16.738899167579603 18.400692326710214 54.45490599673524 H 0.0 **** 0.06
14254 H 16.517710514587378 19.89469672845138 53.51185559246122 H 0.0 **** 0.06
14255 H 17.96707003642055 18.89130544379472 53.26288472743646 H 0.0 **** 0.06
14256 C 73.61838766795691 62.36534621239224 0.5473018901904307 C 0.0 **** -0.24
14257 H 74.14884060625735 63.13783624036125 1.1050459806153068 H 0.0 **** 0.06
14258 H 72.548628975235 62.447349424140555 0.7431244144520619 H 0.0 **** 0.06
14259 H 73.9720774039871 61.384072371516595 0.86071324754759 H 0.0 **** 0.06
14260 H 73.80405662490841 62.49572855256213 -0.518663415364486 H 0.0 **** 0.06
14261 C 82.76625564351303 58.0228358960951 13.827616007502371 C 0.0 **** -0.24
14262 H 81.8376633930784 57.52485616593245 13.547051858691134 H 0.0 **** 0.06
14263 H 83.32696515458309 57.3859738113801 14.513142232934712 H 0.0 **** 0.06
14264 H 82.53672846744672 58.969770646792796 14.316174519823534 H 0.0 **** 0.06
14265 H 83.36202197790337 58.2094121227328 12.934821920859463 H 0.0 **** 0.06
14266 C 50.278000819422346 15.640085427094647 41.267755749612036 C 0.0 **** -0.24
14267 H 51.20855407421749 15.099591229931775 41.44031361426039 H 0.0 **** 0.06
14268 H 49.49299043804257 15.220663866960507 41.89732373577408 H 0.0 **** 0.06
14269 H 49.99317942626945 15.547903746088593 40.220197724359934 H 0.0 **** 0.06
14270 H 50.418805352562515 16.6923274193378 41.515565076913845 H 0.0 **** 0.06
14271 C 1.8241150259093644 49.563979877414596 59.43892592551754 C 0.0 **** -0.24
14272 H 0.790177807718603 49.54315459443501 59.78113728685645 H 0.0 **** 0.06
14273 H 1.8651702284448657 49.28052610297971 58.38683132613346 H 0.0 **** 0.06
14274 H 2.4162068548071307 48.86371675069057 60.02794322224963 H 0.0 **** 0.06
14275 H 2.225455483056612 50.570850727375785 59.560316146654486 H 0.0 **** 0.06
14276 C 34.22457128779404 75.17402343700641 9.989789752084292 C 0.0 **** -0.24
14277 H 34.02660184653838 75.96533025366526 10.71247167634328 H 0.0 **** 0.06
14278 H 33.36385602144219 75.06062327454569 9.330258679298534 H 0.0 **** 0.06
14279 H 34.40451566962972 74.23708909015784 10.517146018492756 H 0.0 **** 0.06
14280 H 35.10331161356606 75.43305112965669 9.39928263420284 H 0.0 **** 0.06
14281 C 15.490062343743098 89.13100701633732 34.126152176695356 C 0.0 **** -0.24
14282 H 15.959755921405296 88.99100306110242 33.151459645724685 H 0.0 **** 0.06
14283 H 14.4066926551914 89.15838539014376 34.00608487932598 H 0.0 **** 0.06
14284 H 15.831466971750917 90.06934364895633 34.56217368667512 H 0.0 **** 0.06
14285 H 15.76260102113708 88.30423656661299 34.78209642833082 H 0.0 **** 0.06
14286 C 24.003520506863424 108.06387040590644 99.0958586442251 C 0.0 **** -0.24
14287 H 24.894878704198874 108.19685958374808 98.48216649496081 H 0.0 **** 0.06
14288 H 23.970287581042584 108.84041761091947 99.86095253519747 H 0.0 **** 0.06
14289 H 24.034284546299332 107.08366462376998 99.57317809123796 H 0.0 **** 0.06
14290 H 23.115891904544142 108.13446272472538 98.46777368617461 H 0.0 **** 0.06
14291 C 74.53883143528955 21.81612575920701 32.77064238878643 C 0.0 **** -0.24
14292 H 74.3212992070248 22.856204558873742 32.53027326284189 H 0.0 **** 0.06
14293 H 74.34280639740348 21.19295138940538 31.898061468472633 H 0.0 **** 0.06
14294 H 73.9047156992263 21.49411416232016 33.59709769679614 H 0.0 **** 0.06
14295 H 75.58627076358229 21.721480147570276 33.058509859792366 H 0.0 **** 0.06
14296 C 103.36158250116586 72.95682236974451 57.80312467135013 C 0.0 **** -0.24
14297 H 103.77757791550229 71.96228783246403 57.637935334920826 H 0.0 **** 0.06
14298 H 104.14418056939178 73.70369164862817 57.67175466084399 H 0.0 **** 0.06
14299 H 102.96437517584732 73.02063725598805 58.81665051093472 H 0.0 **** 0.06
14300 H 102.56066223555237 73.13882423538081 57.087696463459 H 0.0 **** 0.06
14301 C 28.938631549378727 103.98029386307843 112.74260388386038 C 0.0 **** -0.24
14302 H 28.87458703636176 103.91410180094715 111.65578302840947 H 0.0 **** 0.06
14303 H 28.733104219876935 105.00432122866712 113.05675373048734 H 0.0 **** 0.06
14304 H 29.940414458892093 103.69564088867742 113.06399187827148 H 0.0 **** 0.06
14305 H 28.208226745052173 103.30770820123942 113.19156699947558 H 0.0 **** 0.06
14306 C 47.53492153538842 34.93467936204471 15.453051082312754 C 0.0 **** -0.24
14307 H 48.05805514438299 35.621959971179095 16.117316926740443 H 0.0 **** 0.06
14308 H 48.094474911569705 34.831929257141894 14.522682299952749 H 0.0 **** 0.06
14309 H 46.538992440211985 35.322263614559425 15.238336715225756 H 0.0 **** 0.06
14310 H 47.4483137813414 33.96041271094412 15.934457541535892 H 0.0 **** 0.06
14311 C 2.1051484601674275 102.7833492211139 75.95705732690917 C 0.0 **** -0.24
14312 H 2.6938222076387746 102.54638737351567 75.07156153684556 H 0.0 **** 0.06
14313 H 1.951816203355179 101.87760960790152 76.5435481847372 H 0.0 **** 0.06
14314 H 1.139584663427442 103.1882068982602 75.65378123060614 H 0.0 **** 0.06
14315 H 2.6353707662486556 103.52119300477827 76.5593383554477 H 0.0 **** 0.06
14316 C 84.61895790295657 19.730857473931877 9.575447958438986 C 0.0 **** -0.24
14317 H 83.69449107960358 19.155113117429153 9.613105157956852 H 0.0 **** 0.06
14318 H 85.27270869675098 19.422329358433473 10.392195141922798 H 0.0 **** 0.06
14319 H 84.39106795020524 20.792339646673895 9.672917646361498 H 0.0 **** 0.06
14320 H 85.11873822758096 19.553034267401785 8.62307926857909 H 0.0 **** 0.06
14321 C 43.26747667913486 100.31769060032823 107.8856383077619 C 0.0 **** -0.24
14322 H 42.906851057754295 100.72750620289005 106.94256733473404 H 0.0 **** 0.06
14323 H 44.32922151111319 100.53867988634187 107.99466679924026 H 0.0 **** 0.06
14324 H 43.11891315936731 99.23689485898203 107.8913950006415 H 0.0 **** 0.06
14325 H 42.714778279091774 100.76530400748999 108.71121704125807 H 0.0 **** 0.06
14326 C 16.74532049982679 1.3855396073283828 61.956428763177854 C 0.0 **** -0.24
14327 H 17.158160585828213 0.4506572381953333 61.57903041074729 H 0.0 **** 0.06
14328 H 15.751803847237028 1.540177134841656 61.53533200764565 H 0.0 **** 0.06
14329 H 17.394899547395923 2.2126560448103305 61.66943738924809 H 0.0 **** 0.06
14330 H 16.6755409608065 1.3390270131727675 63.04394062892624 H 0.0 **** 0.06
14331 C 42.07744172203211 50.60164760765798 14.467666837927645 C 0.0 **** -0.24
14332 H 42.29379728135646 50.82364543698557 13.422731529918341 H 0.0 **** 0.06
14333 H 42.27407282873715 49.54760083624737 14.66382285717415 H 0.0 **** 0.06
14334 H 41.0300735129763 50.82154707260426 14.675711687467267 H 0.0 **** 0.06
14335 H 42.711110581008654 51.21581241838388 15.107744919960535 H 0.0 **** 0.06
14336 C 50.86894649930548 19.14930386524597 39.22465544554905 C 0.0 **** -0.24
14337 H 51.40699791343758 19.92215013432636 38.67642114767111 H 0.0 **** 0.06
14338 H 49.893530778986445 18.988566898772348 38.764234510813026 H 0.0 **** 0.06
14339 H 50.73614032182252 19.464229393693557 40.26000226589329 H 0.0 **** 0.06
14340 H 51.44111016095346 18.22087773672945 39.198266982000746 H 0.0 **** 0.06
14341 C 71.64654270949478 35.48451721861608 40.25391552523824 C 0.0 **** -0.24
14342 H 71.70914576141024 36.53835394248529 40.52562603135313 H 0.0 **** 0.06
14343 H 71.96220229627374 35.35811089263967 39.217913071980604 H 0.0 **** 0.06
14344 H 70.61781325528867 35.142423789298675 40.3653396830088 H 0.0 **** 0.06
14345 H 72.2964070217829 34.901609391903094 40.905465464791945 H 0.0 **** 0.06
14346 C 84.59710508139943 10.519382732509712 45.775623450619975 C 0.0 **** -0.24
14347 H 84.60049686403562 10.825550600050065 46.82172301580749 H 0.0 **** 0.06
14348 H 83.90901399311775 9.685005933049638 45.64408823551588 H 0.0 **** 0.06
14349 H 85.60156762715508 10.212216175630203 45.4848963395568 H 0.0 **** 0.06
14350 H 84.27866264472374 11.355184446229373 45.15353952372155 H 0.0 **** 0.06
14351 C 73.98979830140678 94.07536347790375 115.94560830556253 C 0.0 **** -0.24
14352 H 73.03560762423257 94.30655108087498 116.41856494684879 H 0.0 **** 0.06
14353 H 74.59718915451617 93.48004560765654 116.6283700761903 H 0.0 **** 0.06
14354 H 74.51144100391525 95.00251724215642 115.70855483719703 H 0.0 **** 0.06
14355 H 73.81476517316554 93.51265106935918 115.02936562961932 H 0.0 **** 0.06
14356 C 88.44986658238557 118.33655574284951 28.85402786015203 C 0.0 **** -0.24
14357 H 88.17996868341353 117.75118796914049 29.73286587051328 H 0.0 **** 0.06
14358 H 87.57621532458452 118.88648233300958 28.5016631392576 H 0.0 **** 0.06
14359 H 88.80159145476512 117.66939888577721 28.067629830922698 H 0.0 **** 0.06
14360 H 89.24062536609335 119.03942351264423 29.115899969230526 H 0.0 **** 0.06
14361 C 0.15463408220534802 57.81084496126774 116.73015373257425 C 0.0 **** -0.24
14362 H 1.0910464095572934 58.30443828416295 116.98993084321313 H 0.0 **** 0.06
14363 H -0.6753470086268294 58.332259855620144 117.20738374918832 H 0.0 **** 0.06
14364 H 0.18181534031180036 56.77714277232531 117.07498200559124 H 0.0 **** 0.06
14365 H 0.021736620042645427 57.83023806238618 115.64831605554323 H 0.0 **** 0.06
14366 C 90.14004073898104 54.64689653791957 5.225823942802549 C 0.0 **** -0.24
14367 H 89.7182617616146 54.89444521949809 6.20033292543792 H 0.0 **** 0.06
14368 H 91.09386451267 55.161627612823885 5.101357792909312 H 0.0 **** 0.06
14369 H 89.45180723434228 54.960184067140126 4.441222071745017 H 0.0 **** 0.06
14370 H 90.29792286937283 53.5703084540701 5.162405544166916 H 0.0 **** 0.06
14371 C 67.8965950638839 5.921460500904374 11.20352035999785 C 0.0 **** -0.24
14372 H 68.0328319397052 6.7884084598916274 11.850107033981686 H 0.0 **** 0.06
14373 H 67.67365006474884 5.04502916380963 11.811563266164793 H 0.0 **** 0.06
14374 H 68.80961003460004 5.746575299155211 10.63406059852053 H 0.0 **** 0.06
14375 H 67.07048523885265 6.107495595951633 10.51687263669411 H 0.0 **** 0.06
14376 C 73.12848647489909 94.5358139384629 78.19888993768188 C 0.0 **** -0.24
14377 H 72.9633333918315 94.28793016655885 77.15016085423042 H 0.0 **** 0.06
14378 H 72.79766509816201 95.55743607792283 78.38653589550762 H 0.0 **** 0.06
14379 H 74.19045628111826 94.4487577714994 78.43009972448112 H 0.0 **** 0.06
14380 H 72.56254018062066 93.84905050971682 78.82776775933928 H 0.0 **** 0.06
14381 C 101.04198072890182 53.05298074571948 72.95773413020694 C 0.0 **** -0.24
14382 H 101.14785949491142 51.99188829962755 73.18556549670367 H 0.0 **** 0.06
14383 H 100.13458362816746 53.210149426871496 72.37353626131178 H 0.0 **** 0.06
14384 H 101.90531806853977 53.38996818760563 72.3850364783105 H 0.0 **** 0.06
14385 H 100.97817732792095 53.618886312369256 73.88679577949094 H 0.0 **** 0.06
14386 C 100.47968534692095 69.28130188436901 0.6323570677545405 C 0.0 **** -0.24
14387 H 100.17053302318521 68.93146555511296 -0.3529017750954324 H 0.0 **** 0.06
14388 H 101.26996321844612 70.02484112576164 0.5211952587361282 H 0.0 **** 0.06
14389 H 100.85101097390486 68.44049198658902 1.2175626020165993 H 0.0 **** 0.06
14390 H 99.62738675152093 69.7303720895105 1.1425125715027633 H 0.0 **** 0.06
14391 C 113.98385025203964 30.599684714307045 72.65565787883219 C 0.0 **** -0.24
14392 H 113.76715649533715 29.65502573366058 73.15489111362723 H 0.0 **** 0.06
14393 H 113.08945944927956 30.952001303273676 72.141080648316 H 0.0 **** 0.06
14394 H 114.78590263336095 30.453312825678978 71.93255499052162 H 0.0 **** 0.06
14395 H 114.29229998558004 31.338470518883895 73.39539152612195 H 0.0 **** 0.06
14396 C 26.984421893650904 80.23835206839408 55.346914505287465 C 0.0 **** -0.24
14397 H 28.055214199241163 80.25006788900089 55.14396343600189 H 0.0 **** 0.06
14398 H 26.550365009453174 79.31890106043232 54.951815606734336 H 0.0 **** 0.06
14399 H 26.515369381521964 81.09758285628743 54.867862582989936 H 0.0 **** 0.06
14400 H 26.81800817732352 80.28590828078131 56.42214812298267 H 0.0 **** 0.06
14401 C 3.313211693653386 6.329807710511886 116.63557529121934 C 0.0 **** -0.24
14402 H 2.237506384799474 6.152699055221149 116.64150891039714 H 0.0 **** 0.06
14403 H 3.79313962815408 5.675248447211629 117.3635841903081 H 0.0 **** 0.06
14404 H 3.511412324049502 7.370178357226507 116.89611335110618 H 0.0 **** 0.06
14405 H 3.7105639809263806 6.121948206931279 115.6415832313617 H 0.0 **** 0.06
14406 C 19.901042139218433 90.3009296028516 30.34580551135634 C 0.0 **** -0.24
14407 H 19.8724897460727 91.3287163486662 29.983774100396964 H 0.0 **** 0.06
14408 H 19.5172969528016 89.6333915262394 29.572936673940568 H 0.0 **** 0.06
14409 H 19.28569503971753 90.21282478955902 31.241006628701328 H 0.0 **** 0.06
14410 H 20.92932371984185 90.02782409440553 30.583588950972683 H 0.0 **** 0.06
14411 C 90.1819693516326 7.783301607864374 114.23926292444929 C 0.0 **** -0.24
14412 H 89.15033656961526 7.683843844244578 114.57970475515083 H 0.0 **** 0.06
14413 H 90.30907708733747 8.743564097584482 113.7398731797399 H 0.0 **** 0.06
14414 H 90.41217355105573 6.9768995003122996 113.54214865567909 H 0.0 **** 0.06
14415 H 90.85371587197949 7.726386895256766 115.0950741340273 H 0.0 **** 0.06
14416 C 98.20048381939438 64.82103267429645 105.67676333050261 C 0.0 **** -0.24
14417 H 98.5767645109828 63.946754299799856 106.20850553233825 H 0.0 **** 0.06
14418 H 99.01937852188792 65.51885506960019 105.50151793390637 H 0.0 **** 0.06
14419 H 97.4304444828133 65.30756494437799 106.27596978559254 H 0.0 **** 0.06
14420 H 97.77644798658844 64.51107449783734 104.72194079244449 H 0.0 **** 0.06
14421 C 71.75729543955396 25.848469949894195 58.968954646794536 C 0.0 **** -0.24
14422 H 71.87174262066355 24.8363082128958 59.359771943291186 H 0.0 **** 0.06
14423 H 71.1992845670922 26.452420021221542 59.68472330181866 H 0.0 **** 0.06
14424 H 71.21662777122447 25.812749773322423 58.02371285194486 H 0.0 **** 0.06
14425 H 72.7415622860753 26.288969704414114 58.809100568767214 H 0.0 **** 0.06
14426 C 106.17116559910238 110.01184894358474 86.61217778353529 C 0.0 **** -0.24
14427 H 106.87449984933514 109.18854526688483 86.731385487002 H 0.0 **** 0.06
14428 H 106.49940855078285 110.65386600328594 85.79402052500132 H 0.0 **** 0.06
14429 H 106.12925236730968 110.59141568199821 87.53409980638017 H 0.0 **** 0.06
14430 H 105.18110142023517 109.61390439303801 86.38681208018608 H 0.0 **** 0.06
14431 C 71.57056136108741 0.48966525398129157 99.1956083208432 C 0.0 **** -0.24
14432 H 72.63528465571909 0.7117294112946944 99.12859827494182 H 0.0 **** 0.06
14433 H 71.40764963047172 -0.5710371882265441 99.00168634504482 H 0.0 **** 0.06
14434 H 71.0294764976091 1.0818712163092759 98.45822932359985 H 0.0 **** 0.06
14435 H 71.21068414103826 0.7360584425319932 100.19504937011595 H 0.0 **** 0.06
14436 C 13.282682027354724 90.61236747463647 50.814613977124935 C 0.0 **** -0.24
14437 H 12.854268577156006 90.68919138318603 49.815106301985395 H 0.0 **** 0.06
14438 H 13.990815925209873 89.78371427975708 50.84441141909477 H 0.0 **** 0.06
14439 H 12.486915586213726 90.43724801384548 51.53825510607308 H 0.0 **** 0.06
14440 H 13.797723822481544 91.54131411217006 51.06070075473744 H 0.0 **** 0.06
14441 C 83.29382410880848 13.397370092036315 59.47209254508562 C 0.0 **** -0.24
14442 H 82.41644464167277 12.91624298831561 59.040660615948816 H 0.0 **** 0.06
14443 H 83.22843212240215 13.36300367203598 60.5600587516109 H 0.0 **** 0.06
14444 H 83.33703548903745 14.435509793210343 59.14241646538485 H 0.0 **** 0.06
14445 H 84.19273533364884 12.874270699430387 59.14462307802783 H 0.0 **** 0.06
14446 C 116.27534424941553 111.93781960468051 30.69460391998092 C 0.0 **** -0.24
14447 H 116.22915329051528 110.9061494150959 31.044886159384646 H 0.0 **** 0.06
14448 H 117.12972179241203 112.4375891150793 31.151094906124627 H 0.0 **** 0.06
14449 H 115.35838987225185 112.45760840264977 30.973677189449546 H 0.0 **** 0.06
14450 H 116.3843236085838 111.9490591551221 29.61023879408772 H 0.0 **** 0.06
14451 C 32.544198939662756 97.51804133479797 69.74934537469596 C 0.0 **** -0.24
14452 H 32.675717804259385 97.94960462540405 70.74092311026914 H 0.0 **** 0.06
14453 H 31.49306919095865 97.57413581720331 69.46536956154745 H 0.0 **** 0.06
14454 H 32.861989689851555 96.47535253625765 69.76248664572489 H 0.0 **** 0.06
14455 H 33.14527113824178 98.0720456243294 69.02922389101047 H 0.0 **** 0.06
14456 C 111.98889579697584 83.72125929842528 81.9247538979642 C 0.0 **** -0.24
14457 H 113.02502093045163 83.58091393631534 81.61637187688865 H 0.0 **** 0.06
14458 H 111.44121563533622 82.7890100808772 81.78853577661812 H 0.0 **** 0.06
14459 H 111.53257410032734 84.5035261647013 81.31932715018513 H 0.0 **** 0.06
14460 H 111.95910973573547 84.01105613379585 82.97528670401834 H 0.0 **** 0.06
14461 C 53.75846901709503 24.914054774709484 8.558140688164968 C 0.0 **** -0.24
14462 H 53.67307989990371 24.54906887532519 9.58145175324023 H 0.0 **** 0.06
14463 H 53.493540142298784 24.11677299328204 7.865006563454585 H 0.0 **** 0.06
14464 H 54.783771797199826 25.233595465343285 8.371414867348648 H 0.0 **** 0.06
14465 H 53.08388503380583 25.759121528930905 8.416524067658173 H 0.0 **** 0.06
14466 C 106.10566819042239 102.24690910992689 103.47058642145754 C 0.0 **** -0.24
14467 H 106.59241440854501 101.95642900797489 102.53973843184312 H 0.0 **** 0.06
14468 H 106.82944338752694 102.73666413980297 104.12184522494701 H 0.0 **** 0.06
14469 H 105.7114954324858 101.36006727577458 103.96762466391641 H 0.0 **** 0.06
14470 H 105.2879325395244 102.93442488441349 103.25340893720326 H 0.0 **** 0.06
14471 C 52.610970761832185 115.86889394251122 107.47066156277126 C 0.0 **** -0.24
14472 H 53.44447159430823 115.2228465151183 107.74767725934555 H 0.0 **** 0.06
14473 H 52.017927180029325 116.09512495412793 108.35729421565651 H 0.0 **** 0.06
14474 H 51.98708120788784 115.36169380663867 106.7344574889133 H 0.0 **** 0.06
14475 H 52.99557107728222 116.79548024489584 107.0450749539624 H 0.0 **** 0.06
14476 C 6.06895385399838 78.80342984512879 6.726429595837175 C 0.0 **** -0.24
14477 H 5.558878478431495 77.85381457333159 6.88574836659015 H 0.0 **** 0.06
14478 H 5.6789501422378805 79.27832272599758 5.825174065885676 H 0.0 **** 0.06
14479 H 7.138072844829907 78.62747506101113 6.6104337887298925 H 0.0 **** 0.06
14480 H 5.899024210376325 79.45594908843034 7.583014757818091 H 0.0 **** 0.06
14481 C 75.3002059681294 78.93892996572362 102.34306902805324 C 0.0 **** -0.24
14482 H 75.62293429151157 77.96942296889077 102.72535989503913 H 0.0 **** 0.06
14483 H 74.39631939065907 78.81131716140001 101.74797276910726 H 0.0 **** 0.06
14484 H 76.08855530604427 79.36454166849234 101.72228439237665 H 0.0 **** 0.06
14485 H 75.09500708207946 79.60810421252586 103.17880034142834 H 0.0 **** 0.06
14486 C 74.02224859889253 14.752629408899306 81.6014789082113 C 0.0 **** -0.24
14487 H 73.34393165407567 15.58973933255519 81.43643143742545 H 0.0 **** 0.06
14488 H 75.03510401026153 15.04504898712717 81.32248367383926 H 0.0 **** 0.06
14489 H 73.70827223690122 13.905691455676532 80.990451426578 H 0.0 **** 0.06
14490 H 74.00214026234417 14.470532699418172 82.65362509845659 H 0.0 **** 0.06
14491 C 18.694831192690856 21.33482449794758 114.79855506463122 C 0.0 **** -0.24
14492 H 18.846274399982235 22.391602211098842 115.01831944707868 H 0.0 **** 0.06
14493 H 17.680986026230187 21.04721331841489 115.0766294194936 H 0.0 **** 0.06
14494 H 19.4109799774248 20.740203336961713 115.36634217666995 H 0.0 **** 0.06
14495 H 18.843498912267478 21.160681472815327 113.73302108257752 H 0.0 **** 0.06
14496 C 33.84948528179193 23.90555299341915 99.51415713243654 C 0.0 **** -0.24
14497 H 34.88271723905619 23.572835433629848 99.41045867055459 H 0.0 **** 0.06
14498 H 33.83100507592681 24.89133007576234 99.98034022153317 H 0.0 **** 0.06
14499 H 33.30129373373646 23.19844711800434 100.13642946456372 H 0.0 **** 0.06
14500 H 33.38437970767038 23.960535223240328 98.52930871919438 H 0.0 **** 0.06
14501 C 11.637445626706665 35.0993947735808 10.724183822618215 C 0.0 **** -0.24
14502 H 11.731403341098286 34.073815860485354 11.08016046038989 H 0.0 **** 0.06
14503 H 12.630317400634453 35.517519397103996 10.554416076871746 H 0.0 **** 0.06
14504 H 11.114141302960235 35.69645518746347 11.47208094685277 H 0.0 **** 0.06
14505 H 11.073344997077243 35.110141008637214 9.791320706178055 H 0.0 **** 0.06
14506 C 0.5114014639498805 79.83471176992919 47.695766128204454 C 0.0 **** -0.24
14507 H -0.5425800791769575 79.56531666803994 47.77611449902389 H 0.0 **** 0.06
14508 H 0.6866324644311135 80.33684024138756 46.744159759536174 H 0.0 **** 0.06
14509 H 1.1208136235987922 78.93177067910301 47.74881193109047 H 0.0 **** 0.06
14510 H 0.7782486226939795 80.50232089902306 48.514182973478604 H 0.0 **** 0.06
14511 C 4.843988987658349 20.990568491494212 51.303016388558206 C 0.0 **** -0.24
14512 H 5.196779728108652 20.000122276289506 51.59343962508527 H 0.0 **** 0.06
14513 H 4.020311013761415 20.889354166502137 50.596514577329685 H 0.0 **** 0.06
14514 H 5.65826806668268 21.54327379423809 50.83529750750205 H 0.0 **** 0.06
14515 H 4.5019597188968135 21.526991367763234 52.187668863776196 H 0.0 **** 0.06
14516 C 50.97830168973728 97.41892095961299 61.88988464847799 C 0.0 **** -0.24
14517 H 51.60519997769492 96.53544996142321 62.01529664299113 H 0.0 **** 0.06
14518 H 50.6187955512472 97.46536973873373 60.861177446890395 H 0.0 **** 0.06
14519 H 51.562790993933106 98.31242352071123 62.111515092936315 H 0.0 **** 0.06
14520 H 50.129605008962244 97.36108474263548 62.57012826909133 H 0.0 **** 0.06
14521 C 20.562146546774603 4.594070250901709 47.41524419186945 C 0.0 **** -0.24
14522 H 19.809993595432555 3.841701239946943 47.65265181911374 H 0.0 **** 0.06
14523 H 20.636121208924664 5.305819678118027 48.23749784789132 H 0.0 **** 0.06
14524 H 20.275601562871433 5.119041207762123 46.50438910330047 H 0.0 **** 0.06
14525 H 21.526753203443604 4.108336599456933 47.266713359413586 H 0.0 **** 0.06
14526 C 64.8366629963609 86.42992893621863 86.6068459391316 C 0.0 **** -0.24
14527 H 64.36562021536062 85.59146991011016 86.093143915415 H 0.0 **** 0.06
14528 H 65.49842389770319 86.95222448413762 85.91592594477245 H 0.0 **** 0.06
14529 H 65.41392167610621 86.06014777460217 87.45410378734596 H 0.0 **** 0.06
14530 H 64.06734743034005 87.11598075877617 86.96272806585358 H 0.0 **** 0.06
14531 C 10.30137262264995 23.578687022289714 89.13127373158929 C 0.0 **** -0.24
14532 H 9.954081690375176 24.439586992880827 88.56081973339292 H 0.0 **** 0.06
14533 H 11.17268963858308 23.86236251270254 89.72254821227426 H 0.0 **** 0.06
14534 H 10.573862335871809 22.77544437950892 88.44640936192258 H 0.0 **** 0.06
14535 H 9.507080152672785 23.237331434145062 89.79507972844871 H 0.0 **** 0.06
14536 C 65.82702368418254 80.87440116410318 69.89073360929851 C 0.0 **** -0.24
14537 H 65.30750638715176 81.59195926008249 70.52652506870004 H 0.0 **** 0.06
14538 H 66.80745348799203 81.26904127689795 69.62482549306748 H 0.0 **** 0.06
14539 H 65.24501017598553 80.70376023614483 68.9854438885396 H 0.0 **** 0.06
14540 H 65.9470367303557 79.93361685157123 70.42882688108682 H 0.0 **** 0.06
14541 C 12.939378255683238 99.81196412719731 12.076871912889306 C 0.0 **** -0.24
14542 H 12.976909055797591 100.78093110841297 12.576129444768753 H 0.0 **** 0.06
14543 H 13.032711049518525 99.95523144169081 11.000863561320308 H 0.0 **** 0.06
14544 H 11.989057304580939 99.32631584408588 12.298117010388133 H 0.0 **** 0.06
14545 H 13.758473940178476 99.18807560259589 12.433988019190405 H 0.0 **** 0.06
14546 C 87.79183787334236 4.137686211428388 100.12387601621009 C 0.0 **** -0.24
14547 H 87.70279854059166 3.518491414987068 101.01701230165912 H 0.0 **** 0.06
14548 H 88.18798301008565 3.5378650264252087 99.30528450018392 H 0.0 **** 0.06
14549 H 88.46670809142685 4.970135140312209 100.32525275214408 H 0.0 **** 0.06
14550 H 86.81000905175026 4.5234747040353795 99.85027238224035 H 0.0 **** 0.06
14551 C 94.62068361440686 73.03370342964817 17.554858082317963 C 0.0 **** -0.24
14552 H 94.08448858324641 73.89993936808875 17.94314893745974 H 0.0 **** 0.06
14553 H 95.53899439767383 73.36364904339712 17.069304011248022 H 0.0 **** 0.06
14554 H 93.994356871246 72.51183222876736 16.83264708843197 H 0.0 **** 0.06
14555 H 94.86609023055121 72.36095073186465 18.377005275536703 H 0.0 **** 0.06
14556 C 38.862868259809176 26.871657814596063 56.3900979662092 C 0.0 **** -0.24
14557 H 39.332313475582254 25.888271293707987 56.38243813070878 H 0.0 **** 0.06
14558 H 39.22860688836593 27.455685224889265 55.545270861341265 H 0.0 **** 0.06
14559 H 39.108306420774994 27.383590438695137 57.32083299556018 H 0.0 **** 0.06
14560 H 37.781174891884035 26.757755969032658 56.312146342625454 H 0.0 **** 0.06
14561 C 11.546440414157502 112.60584018343528 31.41958454028918 C 0.0 **** -0.24
14562 H 11.569901162219793 112.69926313649063 32.50577530259099 H 0.0 **** 0.06
14563 H 10.512964391835084 112.51042830368034 31.08595678960627 H 0.0 **** 0.06
14564 H 12.108682170751507 111.72080267343033 31.11928557399827 H 0.0 **** 0.06
14565 H 11.994722457690017 113.49157457996293 30.969073300260035 H 0.0 **** 0.06
14566 C 54.060117600778426 45.21029054094646 35.34510556244881 C 0.0 **** -0.24
14567 H 54.831401817910205 45.34979012123006 36.10287011607522 H 0.0 **** 0.06
14568 H 53.93583816329708 46.13443433530466 34.78089600791668 H 0.0 **** 0.06
14569 H 53.11877970600304 44.950406137032985 35.830151624120305 H 0.0 **** 0.06
14570 H 54.35528892230056 44.40765438647401 34.66997401368104 H 0.0 **** 0.06
14571 C 46.408657895452166 60.87927006881037 101.2148608905629 C 0.0 **** -0.24
14572 H 45.513577557877426 60.94923123076438 101.83196389875243 H 0.0 **** 0.06
14573 H 47.2302034012136 60.48093900340811 101.81069135616775 H 0.0 **** 0.06
14574 H 46.67434725738906 61.8708111165455 100.84641799898898 H 0.0 **** 0.06
14575 H 46.216841553377776 60.21696290444265 100.3707434384821 H 0.0 **** 0.06
14576 C 11.496863003325785 11.865268926721782 100.28696435450851 C 0.0 **** -0.24
14577 H 12.001605260014628 11.092104997532786 100.86630136056968 H 0.0 **** 0.06
14578 H 11.132166246880814 11.438376580448562 99.35257376012254 H 0.0 **** 0.06
14579 H 12.197956778148864 12.671191077963087 100.06939002098358 H 0.0 **** 0.06
14580 H 10.657115756903295 12.25924428983133 100.85978506712382 H 0.0 **** 0.06
14581 C 53.067186214210096 87.53016377648737 78.89609717516777 C 0.0 **** -0.24
14582 H 54.13321932540276 87.64980471672769 78.70574498990916 H 0.0 **** 0.06
14583 H 52.567187272091104 88.4928651949937 78.78384887249399 H 0.0 **** 0.06
14584 H 52.91919475820927 87.15964165239916 79.91118265956783 H 0.0 **** 0.06
14585 H 52.6487425821806 86.81762676567851 78.18569203175534 H 0.0 **** 0.06
14586 C 110.55603169036198 0.6526069411255477 35.05680944478641 C 0.0 **** -0.24
14587 H 110.33059382216322 -0.38787394669209263 35.29062103174098 H 0.0 **** 0.06
14588 H 111.10914292465142 1.0988122163099625 35.88338998758471 H 0.0 **** 0.06
14589 H 109.62505019428608 1.1996315008365865 34.90430626555485 H 0.0 **** 0.06
14590 H 111.15794065757188 0.6983394428948415 34.149778770860564 H 0.0 **** 0.06
14591 C 22.55019345924046 34.89831867105671 77.87466678478094 C 0.0 **** -0.24
14592 H 21.757527671908008 34.268770633787256 77.46985718500835 H 0.0 **** 0.06
14593 H 23.501556458362813 34.36953986988777 77.81276349224876 H 0.0 **** 0.06
14594 H 22.330724087966047 35.13165813920802 78.9168766958139 H 0.0 **** 0.06
14595 H 22.608366303241496 35.8225265933132 77.2999675681908 H 0.0 **** 0.06
14596 C 51.16375169215564 22.917379775277993 87.72698312055914 C 0.0 **** -0.24
14597 H 51.331278209434316 23.64019620956492 88.52467777639814 H 0.0 **** 0.06
14598 H 50.10790194066345 22.917967999623656 87.45226207363993 H 0.0 **** 0.06
14599 H 51.44851248923442 21.922922354336578 88.07127271226449 H 0.0 **** 0.06
14600 H 51.76526030439513 23.18760018820582 86.85942110460726 H 0.0 **** 0.06
14601 C 19.55734351482785 81.99900898650392 41.66879332316054 C 0.0 **** -0.24
14602 H 18.73289423432371 81.95286446408565 42.379417388180826 H 0.0 **** 0.06
14603 H 19.253638228874195 81.53719652522469 40.72919397563214 H 0.0 **** 0.06
14604 H 20.416770996066845 81.46507289800644 42.07521216206811 H 0.0 **** 0.06
14605 H 19.82676499582122 83.04028019618573 41.492413354387395 H 0.0 **** 0.06
14606 C 41.01033269462644 92.0032212382095 57.86953850732157 C 0.0 **** -0.24
14607 H 41.46209462481458 92.98427600005289 58.01819352508968 H 0.0 **** 0.06
14608 H 41.77927609247595 91.29231929887985 57.564592375584404 H 0.0 **** 0.06
14609 H 40.246721502749494 92.0677057409797 57.094861656160056 H 0.0 **** 0.06
14610 H 40.554710446031635 91.66854668796614 58.80141879748833 H 0.0 **** 0.06
14611 C 68.67414721505006 104.7370324923748 29.792640061910916 C 0.0 **** -0.24
14612 H 69.6315846942334 105.23553026496705 29.64020964472467 H 0.0 **** 0.06
14613 H 68.82335441071749 103.65720123457692 29.789768021242175 H 0.0 **** 0.06
14614 H 67.99021744320274 105.01146531465122 28.98896393735727 H 0.0 **** 0.06
14615 H 68.2520410091164 105.04338006281358 30.749539252733896 H 0.0 **** 0.06
14616 C 31.880921772732847 10.08716971050967 60.52058032687342 C 0.0 **** -0.24
14617 H 32.3666669802835 10.88767785504865 61.077819794953434 H 0.0 **** 0.06
14618 H 30.891801826081064 9.899664571975137 60.94068059410849 H 0.0 **** 0.06
14619 H 32.48241465615115 9.180486060156511 60.58780127075965 H 0.0 **** 0.06
14620 H 31.78065468190121 10.381228240699045 59.4755302358187 H 0.0 **** 0.06
14621 C 74.77587277497517 50.28603087375973 86.37930159593208 C 0.0 **** -0.24
14622 H 73.68926838287896 50.19976444764649 86.36855089200807 H 0.0 **** 0.06
14623 H 75.13392506023322 50.236719923007854 87.40815271380589 H 0.0 **** 0.06
14624 H 75.06910508633783 51.2385602688843 85.93806228942418 H 0.0 **** 0.06
14625 H 75.21073891885135 49.469177978451455 85.80377633727784 H 0.0 **** 0.06
14626 C 62.4326055895317 5.493247927187284 54.28209587859422 C 0.0 **** -0.24
14627 H 62.81071824466658 5.352658575414338 53.26882932829784 H 0.0 **** 0.06
14628 H 62.277933618789454 6.556533762965444 54.467286112432646 H 0.0 **** 0.06
14629 H 63.156325799368055 5.101553779856729 54.99716534827407 H 0.0 **** 0.06
14630 H 61.48716534543707 4.9627696029346 54.393774167172836 H 0.0 **** 0.06
14631 C 110.56414246653212 117.05900412512703 64.7139528880877 C 0.0 **** -0.24
14632 H 111.25728475039095 117.8561060872302 64.44525640416444 H 0.0 **** 0.06
14633 H 110.64712131622308 116.84905168991702 65.78080297836027 H 0.0 **** 0.06
14634 H 110.80649150359322 116.16023548567492 64.14715095843025 H 0.0 **** 0.06
14635 H 109.54567229592101 117.37062323768609 64.48260121139583 H 0.0 **** 0.06
14636 C 74.12699416098701 49.06055008066846 77.72558715753894 C 0.0 **** -0.24
14637 H 74.28263545048941 47.9826804050233 77.68196021079348 H 0.0 **** 0.06
14638 H 75.04207389399852 49.57151673489801 77.4232250669233 H 0.0 **** 0.06
14639 H 73.86949413490453 49.34829819417058 78.74414360604402 H 0.0 **** 0.06
14640 H 73.31589988233043 49.33738359217341 77.05272179370826 H 0.0 **** 0.06
14641 C 33.41119327533704 5.538836549605705 60.037155627270444 C 0.0 **** -0.24
14642 H 32.60504973260453 5.267398551593459 60.71900575173378 H 0.0 **** 0.06
14643 H 33.07079907627684 5.42091464449318 59.00852752734625 H 0.0 **** 0.06
14644 H 34.268788940553975 4.889923155494856 60.21318010976818 H 0.0 **** 0.06
14645 H 33.697897184791344 6.575491380941642 60.209080317524105 H 0.0 **** 0.06
14646 C 17.817231453937126 102.24029389061661 73.77191661353635 C 0.0 **** -0.24
14647 H 17.533212152028938 101.90677189181932 74.76961127354423 H 0.0 **** 0.06
14648 H 17.86927425588678 103.32965250172708 73.75388808010362 H 0.0 **** 0.06
14649 H 17.07394853144814 101.89999733214265 73.05087616901446 H 0.0 **** 0.06
14650 H 18.79120590301065 101.82476624544742 73.51388152996765 H 0.0 **** 0.06
14651 C 110.70375041871573 41.8010798322768 32.75542226776568 C 0.0 **** -0.24
14652 H 109.80999900098013 42.14242343105727 33.2758253849581 H 0.0 **** 0.06
14653 H 111.25998676337255 42.66259697078189 32.38602692955925 H 0.0 **** 0.06
14654 H 110.41613705355806 41.16675139933977 31.91642249781141 H 0.0 **** 0.06
14655 H 111.32954031014285 41.23189278448726 33.443048404580736 H 0.0 **** 0.06
14656 C 48.772433904400344 103.86166367592125 2.9646239929690665 C 0.0 **** -0.24
14657 H 49.26223757199975 102.91871162523384 2.720908200132831 H 0.0 **** 0.06
14658 H 47.9979465518779 104.06922698384597 2.2259444886957205 H 0.0 **** 0.06
14659 H 49.50928458203268 104.6659978945604 2.9539832764160145 H 0.0 **** 0.06
14660 H 48.32297291683517 103.79297673674512 3.9542523963922047 H 0.0 **** 0.06
14661 C 55.836828067424044 111.95431308501125 83.49390057830772 C 0.0 **** -0.24
14662 H 56.161639234345806 112.99099442911708 83.4084077030779 H 0.0 **** 0.06
14663 H 55.935764543584874 111.62689604576215 84.52944550634993 H 0.0 **** 0.06
14664 H 56.456157884901835 111.32541523674402 82.85316605304365 H 0.0 **** 0.06
14665 H 54.794871555549825 111.87316770470781 83.18495300887582 H 0.0 **** 0.06
14666 C 98.95224483559187 1.0499651887047747 102.41274951820066 C 0.0 **** -0.24
14667 H 99.89727727467059 0.7876767786068939 102.88929762658137 H 0.0 **** 0.06
14668 H 98.1327583605223 0.5585215504043788 102.93855625208442 H 0.0 **** 0.06
14669 H 98.96656795612068 0.7227206684542722 101.37365309449393 H 0.0 **** 0.06
14670 H 98.81419873102593 2.1302925885243127 102.45269362109764 H 0.0 **** 0.06
14671 C 47.970382930635964 97.44112674084417 87.33067328338905 C 0.0 **** -0.24
14672 H 48.42758960392686 96.50656569342203 87.00519318877761 H 0.0 **** 0.06
14673 H 46.9105108737466 97.43253514136237 87.08031981685025 H 0.0 **** 0.06
14674 H 48.45723120601369 98.27714839200812 86.82750314799878 H 0.0 **** 0.06
14675 H 48.08985604355237 97.54771084601182 88.4090978770154 H 0.0 **** 0.06
14676 C 2.5733266996680157 47.52563472235113 50.70683405043178 C 0.0 **** -0.24
14677 H 2.724184814907062 48.590102712202906 50.53105231746139 H 0.0 **** 0.06
14678 H 3.3443246172212184 47.156497070279386 51.38443147946805 H 0.0 **** 0.06
14679 H 2.6346701499278993 46.98875110174083 49.75982952534366 H 0.0 **** 0.06
14680 H 1.5914831636476805 47.36611152730444 51.151970166057254 H 0.0 **** 0.06
14681 C 45.4957871813578 81.37166059055167 87.25899389608165 C 0.0 **** -0.24
14682 H 46.094959582358314 81.86074815079084 88.0278355140332 H 0.0 **** 0.06
14683 H 44.50142096416667 81.16223702731665 87.65215558490962 H 0.0 **** 0.06
14684 H 45.97457931710329 80.43828585539038 86.96434119569244 H 0.0 **** 0.06
14685 H 45.41462882796344 82.02709588468988 86.39191347264193 H 0.0 **** 0.06
14686 C 95.17697817448209 7.449561708330549 31.94877374064498 C 0.0 **** -0.24
14687 H 95.19071579070501 6.361963094342144 32.0255471202226 H 0.0 **** 0.06
14688 H 94.41799178767025 7.753643542100093 31.22772208362977 H 0.0 **** 0.06
14689 H 96.15406548826172 7.8030834797195325 31.619150742560237 H 0.0 **** 0.06
14690 H 94.94562982553973 7.879073442870066 32.923400422341444 H 0.0 **** 0.06
14691 C 100.6618622543011 110.32074836184665 59.18972409382838 C 0.0 **** -0.24
14692 H 99.94862352819098 109.9602058782738 59.931010956273774 H 0.0 **** 0.06
14693 H 100.45080848857458 109.8546763865975 58.22664940305335 H 0.0 **** 0.06
14694 H 101.67337788875412 110.06455237176979 59.50396329029429 H 0.0 **** 0.06
14695 H 100.57245029663241 111.40340449908058 59.09770350332264 H 0.0 **** 0.06
14696 C 58.30398074837541 44.19836335632607 27.30076364748149 C 0.0 **** -0.24
14697 H 57.6559684954004 44.511534135126766 28.119855095128372 H 0.0 **** 0.06
14698 H 59.24618159068976 44.74392533308253 27.355153768894027 H 0.0 **** 0.06
14699 H 57.81451135339168 44.41056587100479 26.349443794750982 H 0.0 **** 0.06
14700 H 58.49707044400216 43.12908046418153 27.379814041113946 H 0.0 **** 0.06
14701 C 42.52689599022611 12.705188470592418 35.70815703746024 C 0.0 **** -0.24
14702 H 41.66677945589424 13.206341736284571 35.265384571661286 H 0.0 **** 0.06
14703 H 42.19835624991859 12.093646378311036 36.54856912934977 H 0.0 **** 0.06
14704 H 43.24080524991439 13.450483691158553 36.0578470888961 H 0.0 **** 0.06
14705 H 43.0016430051769 12.070282076615655 34.960827359933916 H 0.0 **** 0.06
14706 C 50.785667118791636 25.08604816056726 57.805626099114015 C 0.0 **** -0.24
14707 H 50.250470972487776 24.26356647373973 58.2806298408189 H 0.0 **** 0.06
14708 H 51.239601880390246 25.714416310963315 58.571458475041034 H 0.0 **** 0.06
14709 H 50.08938436540816 25.679468383267363 57.2130543012486 H 0.0 **** 0.06
14710 H 51.564823797075434 24.685206594656506 57.156339913429385 H 0.0 **** 0.06
14711 C 98.14817324545615 99.34091285046213 85.25475573464306 C 0.0 **** -0.24
14712 H 98.96329936930627 99.95226479414225 84.86790594892415 H 0.0 **** 0.06
14713 H 97.70775602792088 99.8313313981057 86.12316745839698 H 0.0 **** 0.06
14714 H 98.53472916117292 98.36376576341979 85.54568306078491 H 0.0 **** 0.06
14715 H 97.38895035037629 99.21716625864838 84.48251552269392 H 0.0 **** 0.06
14716 C 1.9021633954984054 104.1088892813672 94.71137738931705 C 0.0 **** -0.24
14717 H 2.1821108957610136 105.02746435213376 94.19513632346218 H 0.0 **** 0.06
14718 H 1.5038875338991318 103.39428457417463 93.99061872011961 H 0.0 **** 0.06
14719 H 1.141627228084218 104.33125599649995 95.46060193211034 H 0.0 **** 0.06
14720 H 2.779113212471401 103.68401275990826 95.19870424834781 H 0.0 **** 0.06
14721 C 117.66548260543257 26.146026531647863 25.78747790927116 C 0.0 **** -0.24
14722 H 118.29694175654274 25.83567817251742 26.619904361959144 H 0.0 **** 0.06
14723 H 118.2010767278019 26.874960246764743 25.17765395049915 H 0.0 **** 0.06
14724 H 116.7511762818345 26.59719727948118 26.173575695156046 H 0.0 **** 0.06
14725 H 117.41380090238951 25.277081004124966 25.17923406386555 H 0.0 **** 0.06
14726 C 65.96839584258299 31.672992443344747 90.90072363149827 C 0.0 **** -0.24
14727 H 66.31409470516991 32.60998357228298 91.33762579908014 H 0.0 **** 0.06
14728 H 64.97031551140486 31.444442597741244 91.27435471128993 H 0.0 **** 0.06
14729 H 66.65229291445524 30.86994223687855 91.17571951788011 H 0.0 **** 0.06
14730 H 65.93739605472956 31.769254877191557 89.8151909715375 H 0.0 **** 0.06
14731 C 99.88059781930562 118.04900169961623 15.330415265614484 C 0.0 **** -0.24
14732 H 100.02208947426104 117.05559777394511 14.904509958214998 H 0.0 **** 0.06
14733 H 100.09045376130948 118.80166348852832 14.571490242383476 H 0.0 **** 0.06
14734 H 100.55928160776017 118.18284035941028 16.173695283175174 H 0.0 **** 0.06
14735 H 98.85144038585591 118.15406199067397 15.673321758991737 H 0.0 **** 0.06
14736 C 48.267763746089344 101.88174073605799 118.04223388833212 C 0.0 **** -0.24
14737 H 47.61167449376819 102.3071663235315 117.28285484504137 H 0.0 **** 0.06
14738 H 49.09291878685548 101.36011456562127 117.55835393587802 H 0.0 **** 0.06
14739 H 47.70426592095146 101.18076295281597 118.65662286646189 H 0.0 **** 0.06
14740 H 48.660474139822895 102.6811354371151 118.67075138103814 H 0.0 **** 0.06
14741 C 89.98956991243108 6.342536102310191 96.4685275588946 C 0.0 **** -0.24
14742 H 89.43355747193135 6.195274842211774 95.54249199121057 H 0.0 **** 0.06
14743 H 89.29205761880661 6.404056397725881 97.30460679855076 H 0.0 **** 0.06
14744 H 90.56289336456285 7.2681515852737135 96.40347481532524 H 0.0 **** 0.06
14745 H 90.66930954007262 5.504228702002109 96.62122762962838 H 0.0 **** 0.06
14746 C 24.39262834552933 101.84141326977942 60.7015920782373 C 0.0 **** -0.24
14747 H 24.989908236424625 101.2469699030255 61.39258003307333 H 0.0 **** 0.06
14748 H 24.37738818287582 102.87906659787603 61.03503004759466 H 0.0 **** 0.06
14749 H 23.37512035232067 101.45285562340291 60.67395247650359 H 0.0 **** 0.06
14750 H 24.829151548723637 101.78605269637191 59.704184794883304 H 0.0 **** 0.06
14751 C 71.7185515809469 11.911446191827224 30.991614232366317 C 0.0 **** -0.24
14752 H 72.49561127221256 11.214749595266198 30.67444116042833 H 0.0 **** 0.06
14753 H 71.5680980727872 12.663038893571638 30.21638346305474 H 0.0 **** 0.06
14754 H 72.02386438247825 12.400072387629791 31.917053112651843 H 0.0 **** 0.06
14755 H 70.78848483269235 11.367337638094085 31.15608397516712 H 0.0 **** 0.06
14756 C 89.4530087284052 43.23656046312803 64.30684899706145 C 0.0 **** -0.24
14757 H 89.87664943098477 43.86682877569096 63.52496922677196 H 0.0 **** 0.06
14758 H 88.70684720610438 42.5712720087009 63.871396501465114 H 0.0 **** 0.06
14759 H 88.98361735798375 43.86354501686199 65.06477423575609 H 0.0 **** 0.06
14760 H 90.24582875558397 42.6446211579603 64.76517190309437 H 0.0 **** 0.06
14761 C 8.32789855715788 42.04979305943351 100.49170502208509 C 0.0 **** -0.24
14762 H 8.522848813233708 40.986623410371635 100.35226239846097 H 0.0 **** 0.06
14763 H 7.9112951479337426 42.466007738097744 99.57395420298701 H 0.0 **** 0.06
14764 H 9.259586336025166 42.56147934293949 100.73310635053136 H 0.0 **** 0.06
14765 H 7.6178639314389045 42.18506174632495 101.30749713636109 H 0.0 **** 0.06
14766 C 87.16820313823735 59.00190183763237 116.2738191478685 C 0.0 **** -0.24
14767 H 88.19421596045044 59.361018491318525 116.34303901970979 H 0.0 **** 0.06
14768 H 87.145544818367 57.927869887509495 116.45960818840011 H 0.0 **** 0.06
14769 H 86.77713292478836 59.207941706687585 115.27811529916785 H 0.0 **** 0.06
14770 H 86.55467388969191 59.511736299297006 117.01706963809576 H 0.0 **** 0.06
14771 C 30.155759271430284 29.45462936100118 111.81425369455764 C 0.0 **** -0.24
14772 H 31.10855236801639 29.483620527631388 111.28573842551111 H 0.0 **** 0.06
14773 H 29.370217502450785 29.136265214550548 111.12866636263402 H 0.0 **** 0.06
14774 H 29.92262759289838 30.447902040802717 112.1977488937548 H 0.0 **** 0.06
14775 H 30.221710969212857 28.75145223370356 112.6432885270894 H 0.0 **** 0.06
14776 C 2.032249006680672 13.569021177780172 110.81210307854448 C 0.0 **** -0.24
14777 H 3.0894971999416896 13.49055519428262 110.55807761247141 H 0.0 **** 0.06
14778 H 1.7701988050922068 12.785421637381745 111.52310661475724 H 0.0 **** 0.06
14779 H 1.4332791395166566 13.456250949626678 109.90892176156859 H 0.0 **** 0.06
14780 H 1.8387720329671708 14.545022263860716 111.25803486097212 H 0.0 **** 0.06
14781 C 28.482030738477896 61.22802231863202 62.85422727916177 C 0.0 **** -0.24
14782 H 29.458044539709498 61.69035868539415 62.70706169925804 H 0.0 **** 0.06
14783 H 28.005193602883132 61.66084567396778 63.734259619890416 H 0.0 **** 0.06
14784 H 28.60762396731485 60.15513201365915 62.99861315407194 H 0.0 **** 0.06
14785 H 27.859426935378323 61.40589357956414 61.978109812661536 H 0.0 **** 0.06
14786 C 22.20631685982174 84.5424219346855 74.85646225139615 C 0.0 **** -0.24
14787 H 22.986962995689623 84.42337644649677 75.60707685764257 H 0.0 **** 0.06
14788 H 21.681444191771234 85.48312122561697 75.02465597995894 H 0.0 **** 0.06
14789 H 21.50060830109834 83.7139369184992 74.93207108663952 H 0.0 **** 0.06
14790 H 22.65526214550971 84.54742351563297 73.86333855801854 H 0.0 **** 0.06
14791 C 37.13944738732623 12.066574376034822 80.64928197293187 C 0.0 **** -0.24
14792 H 37.25814171588603 11.862735057549855 81.71334388091259 H 0.0 **** 0.06
14793 H 38.079205299667294 12.442774770595975 80.24504454615692 H 0.0 **** 0.06
14794 H 36.356859535131726 12.812000768538013 80.50725617838737 H 0.0 **** 0.06
14795 H 36.86313782421676 11.146851945313983 80.13251189409323 H 0.0 **** 0.06
14796 C 118.5267637952773 21.670486066726113 8.811337294010968 C 0.0 **** -0.24
14797 H 118.34327828955475 21.32354782780436 9.828203801349929 H 0.0 **** 0.06
14798 H 117.57457773397076 21.821529698287932 8.301554822433019 H 0.0 **** 0.06
14799 H 119.1135733082441 20.92552168923669 8.273751716204416 H 0.0 **** 0.06
14800 H 119.07561590635913 22.611891297601147 8.842676436781801 H 0.0 **** 0.06
14801 C 47.034067108276986 70.63599607052038 110.20414074840477 C 0.0 **** -0.24
14802 H 47.39926704917297 70.57429116582512 109.1784701676903 H 0.0 **** 0.06
14803 H 46.1078101031007 70.06764743047154 110.29455874516495 H 0.0 **** 0.06
14804 H 46.84774704511987 71.6784389909783 110.4612635331756 H 0.0 **** 0.06
14805 H 47.78203995203275 70.2225871196614 110.88037163174398 H 0.0 **** 0.06
14806 C 12.19140978856933 44.91152311632915 29.920714390302123 C 0.0 **** -0.24
14807 H 12.265944383017711 45.99489518510654 30.01531951590522 H 0.0 **** 0.06
14808 H 12.431549944553126 44.44673028619901 30.87726597500827 H 0.0 **** 0.06
14809 H 12.891554366655953 44.56395627260477 29.16142169663783 H 0.0 **** 0.06
14810 H 11.175802938049003 44.64185918182402 29.62959979962048 H 0.0 **** 0.06
14811 C 1.806855814761036 24.418386513521227 4.107664349784471 C 0.0 **** -0.24
14812 H 2.852422626233576 24.699007769338095 4.232441307144228 H 0.0 **** 0.06
14813 H 1.5601072383243206 24.401042013957053 3.04580328796969 H 0.0 **** 0.06
14814 H 1.173931310341004 25.14592263532353 4.616393519218946 H 0.0 **** 0.06
14815 H 1.6417229534443436 23.430214436447272 4.536688401054377 H 0.0 **** 0.06
14816 C 47.55703943423853 17.258109727962363 64.57692901146052 C 0.0 **** -0.24
14817 H 47.517528775655954 18.096109732939425 65.27250822434655 H 0.0 **** 0.06
14818 H 48.06581298819218 16.41733763361455 65.04965133006743 H 0.0 **** 0.06
14819 H 48.10158816078176 17.555643137903473 63.680473681782225 H 0.0 **** 0.06
14820 H 46.54290650896996 16.963779927434757 64.30639073614398 H 0.0 **** 0.06
14821 C 73.16472518678208 48.27109234817925 16.422496413588284 C 0.0 **** -0.24
14822 H 73.10236499290093 47.966206221352024 17.467047616307248 H 0.0 **** 0.06
14823 H 72.1814858434627 48.1841903215749 15.960007487345539 H 0.0 **** 0.06
14824 H 73.8717175272597 47.62763775169715 15.898471028913793 H 0.0 **** 0.06
14825 H 73.50364177523164 49.30618319587157 16.366156984054143 H 0.0 **** 0.06
14826 C 79.22865160939239 52.67670272390244 82.50988892755561 C 0.0 **** -0.24
14827 H 79.05465137713037 53.236644189906194 83.428398593287 H 0.0 **** 0.06
14828 H 78.34374479240861 52.08588030085065 82.27101150545263 H 0.0 **** 0.06
14829 H 80.0828596367314 52.012914244636455 82.64557276902374 H 0.0 **** 0.06
14830 H 79.4337256833642 53.36968566976862 81.69444930464022 H 0.0 **** 0.06
14831 C 75.52959841984804 44.02691057079855 38.52489160544786 C 0.0 **** -0.24
14832 H 76.4512359512359 43.63203643345932 38.09823694057917 H 0.0 **** 0.06
14833 H 75.76919532056905 44.69207896261398 39.355305347742046 H 0.0 **** 0.06
14834 H 74.91468602179447 43.201477901220585 38.88578953242086 H 0.0 **** 0.06
14835 H 74.98275583192441 44.57945843816259 37.761655380101104 H 0.0 **** 0.06
14836 C 110.47098555012936 95.51570908597097 3.050015086762329 C 0.0 **** -0.24
14837 H 111.2271611303659 95.02719688445515 3.6643780718638084 H 0.0 **** 0.06
14838 H 109.47968933037015 95.28431772301704 3.441888164402684 H 0.0 **** 0.06
14839 H 110.5488461581033 95.15695481034939 2.02380036661188 H 0.0 **** 0.06
14840 H 110.62726201058798 96.59374906900973 3.07215040638917 H 0.0 **** 0.06
14841 C 90.83645869285715 71.27553775912128 52.8282613997102 C 0.0 **** -0.24
14842 H 90.12028693159152 71.73785586499332 52.148420544216705 H 0.0 **** 0.06
14843 H 91.84907210741994 71.46870322559624 52.47509188671236 H 0.0 **** 0.06
14844 H 90.66183533172918 70.20011757680282 52.86272425950371 H 0.0 **** 0.06
14845 H 90.7124669638913 71.69503858107231 53.82651470765488 H 0.0 **** 0.06
14846 C 77.0478535607802 56.309972488416825 72.77555254621035 C 0.0 **** -0.24
14847 H 78.07609105897424 56.14982437549937 72.45297893855906 H 0.0 **** 0.06
14848 H 76.39670932813132 56.362081821289046 71.9024280244738 H 0.0 **** 0.06
14849 H 76.98345479661896 57.24376136937692 73.33387295446258 H 0.0 **** 0.06
14850 H 76.73466950803436 55.484108653394635 73.41379482652579 H 0.0 **** 0.06
14851 C 30.05764689337326 107.92877559818228 111.22908813494233 C 0.0 **** -0.24
14852 H 30.342307281749868 106.90030283413788 111.00843734894381 H 0.0 **** 0.06
14853 H 30.291283749288 108.15456343299488 112.26995762414775 H 0.0 **** 0.06
14854 H 28.987303222853853 108.0536699172589 111.06119089665191 H 0.0 **** 0.06
14855 H 30.609081358354956 108.60533002200108 110.57645447795124 H 0.0 **** 0.06
14856 C 107.66154677902031 59.07236826997673 97.95995634536914 C 0.0 **** -0.24
14857 H 106.94051430095084 58.33102959608713 97.61495818834806 H 0.0 **** 0.06
14858 H 107.2602104160593 59.592071581986836 98.82927567036066 H 0.0 **** 0.06
14859 H 107.85232889187913 59.78993254104777 97.16223568919332 H 0.0 **** 0.06
14860 H 108.59314961406199 58.574157335372796 98.23039054768563 H 0.0 **** 0.06
14861 C 57.065551824877076 104.91803946742999 4.539379044359691 C 0.0 **** -0.24
14862 H 56.91178278112264 104.06837513972022 5.205102875445959 H 0.0 **** 0.06
14863 H 56.86398545807663 104.61506470143212 3.511462260371104 H 0.0 **** 0.06
14864 H 58.096512749328326 105.26203235361527 4.621348707429547 H 0.0 **** 0.06
14865 H 56.38987538844995 105.72573236865821 4.819900113580189 H 0.0 **** 0.06
14866 C 12.85456524575548 99.25223025722306 100.96067691024257 C 0.0 **** -0.24
14867 H 12.6966072635187 98.76792491683037 99.9968054413325 H 0.0 **** 0.06
14868 H 13.574783138611224 100.0633970536741 100.84491723821358 H 0.0 **** 0.06
14869 H 13.238907770378006 98.52379873302263 101.67434621837629 H 0.0 **** 0.06
14870 H 11.909786213437314 99.65359525284677 101.32448615959791 H 0.0 **** 0.06
14871 C 76.50628933950446 29.84214177862833 61.52927430826145 C 0.0 **** -0.24
14872 H 77.44630759845978 30.392106621147178 61.477111525917394 H 0.0 **** 0.06
14873 H 75.96523726891854 30.13289220487809 62.430239606709335 H 0.0 **** 0.06
14874 H 76.71266560376182 28.77180144079577 61.558032320472364 H 0.0 **** 0.06
14875 H 75.90260448044006 30.072263276873315 60.65179199327696 H 0.0 **** 0.06
14876 C 0.4551519756591631 47.032228933176896 107.3411827071424 C 0.0 **** -0.24
14877 H 0.30579713139698583 47.154324727111884 106.26857593239785 H 0.0 **** 0.06
14878 H 1.2025626675798833 47.74644507830874 107.6880186607826 H 0.0 **** 0.06
14879 H 0.7982136770622219 46.01802689962233 107.54703582655176 H 0.0 **** 0.06
14880 H -0.48644542701157434 47.209425966092226 107.86163842810149 H 0.0 **** 0.06
14881 C 49.123094136483644 101.6384579046915 33.42043541910357 C 0.0 **** -0.24
14882 H 48.40182150924082 101.05583747637579 33.99260037914411 H 0.0 **** 0.06
14883 H 49.06464266813967 102.68494102829789 33.72112814809134 H 0.0 **** 0.06
14884 H 48.89754307823401 101.55198633622012 32.35731360808256 H 0.0 **** 0.06
14885 H 50.12836929032005 101.2610667778722 33.61069954109627 H 0.0 **** 0.06
14886 C 31.888732860279305 22.73909461437097 76.12385982222719 C 0.0 **** -0.24
14887 H 31.369688201752126 21.973095034196575 76.69993694420236 H 0.0 **** 0.06
14888 H 31.35129986854284 23.68350485639047 76.20900462280594 H 0.0 **** 0.06
14889 H 31.93353569260009 22.438563662144674 75.077064033885 H 0.0 **** 0.06
14890 H 32.901025154381074 22.860593949001185 76.5109281152715 H 0.0 **** 0.06
14891 C 53.2924407594739 79.61866427984427 69.69430402550756 C 0.0 **** -0.24
14892 H 53.17926745782137 80.70096959674808 69.62936103467374 H 0.0 **** 0.06
14893 H 53.731216114892675 79.35707604769149 70.65696613040566 H 0.0 **** 0.06
14894 H 53.94243046867344 79.27214396536408 68.89124513503205 H 0.0 **** 0.06
14895 H 52.314916025302324 79.14553568120112 69.59999440779882 H 0.0 **** 0.06
14896 C 110.71900756850066 54.150524449675046 22.172234223611603 C 0.0 **** -0.24
14897 H 110.16035609522054 54.93018465994874 22.689328038053908 H 0.0 **** 0.06
14898 H 110.55279406679426 53.19420527113529 22.669440765285216 H 0.0 **** 0.06
14899 H 111.78170239512711 54.391408209864586 22.19333565712539 H 0.0 **** 0.06
14900 H 110.38156431794661 54.08645325362416 21.13774183294114 H 0.0 **** 0.06
14901 C 86.13453949078666 49.57731350487512 106.73078141460206 C 0.0 **** -0.24
14902 H 85.13898743562288 49.313499456290856 106.37266289611125 H 0.0 **** 0.06
14903 H 86.70074119571336 50.039498246558026 105.92231468898305 H 0.0 **** 0.06
14904 H 86.64945232364374 48.678229839711946 107.06798143450035 H 0.0 **** 0.06
14905 H 86.04701182280877 50.279054594158936 107.56045179541027 H 0.0 **** 0.06
14906 C 86.3336197236161 19.891412582357688 15.15100490723853 C 0.0 **** -0.24
14907 H 85.34166787324003 19.438993327084432 15.133599071604621 H 0.0 **** 0.06
14908 H 86.56953879232753 20.28405002317126 14.161681587778986 H 0.0 **** 0.06
14909 H 87.07080924587481 19.138730202031923 15.429454862090665 H 0.0 **** 0.06
14910 H 86.34952758671685 20.70348756704655 15.878173904968264 H 0.0 **** 0.06
14911 C 62.669508069082916 76.76424009144486 7.825903904262049 C 0.0 **** -0.24
14912 H 62.188229684812875 76.71527619496536 8.802747408366656 H 0.0 **** 0.06
14913 H 63.2216369795591 77.7009390804792 7.739495953485942 H 0.0 **** 0.06
14914 H 61.91072929560536 76.71616154622018 7.044776640423436 H 0.0 **** 0.06
14915 H 63.357555697110136 75.9255945101851 7.717577354531926 H 0.0 **** 0.06
14916 C 117.74215398315658 83.16492290431023 104.67785237672103 C 0.0 **** -0.24
14917 H 117.04179600142902 82.35077299030303 104.48747046822945 H 0.0 **** 0.06
14918 H 118.75100726156805 82.76218380327217 104.76608405358934 H 0.0 **** 0.06
14919 H 117.46870547226465 83.66901990685145 105.60488619676903 H 0.0 **** 0.06
14920 H 117.70520948510428 83.87553907796641 103.8516784398679 H 0.0 **** 0.06
14921 C 89.02184908605659 58.46872581543838 72.46558797174299 C 0.0 **** -0.24
14922 H 88.03859336290856 58.9328270582509 72.38907794220273 H 0.0 **** 0.06
14923 H 89.76700239429852 59.11897176612435 72.00878359295592 H 0.0 **** 0.06
14924 H 89.01077792023545 57.508696555835776 71.94982756149835 H 0.0 **** 0.06
14925 H 89.26841204740538 58.313826564142595 73.5160219310606 H 0.0 **** 0.06
14926 C 62.19017722996375 93.14916007402445 42.27034730348859 C 0.0 **** -0.24
14927 H 63.07919895116771 93.20113090229003 41.64308747811066 H 0.0 **** 0.06
14928 H 62.468532131596305 92.80840111257163 43.26761379257931 H 0.0 **** 0.06
14929 H 61.47747151569433 92.45043416434137 41.83245208029311 H 0.0 **** 0.06
14930 H 61.73483879778212 94.13740535752186 42.33722600333479 H 0.0 **** 0.06
14931 C 8.868039988630954 80.60423885274687 67.3641213717556 C 0.0 **** -0.24
14932 H 7.941597741393533 80.06672796178552 67.16075863867329 H 0.0 **** 0.06
14933 H 9.246039837352797 81.03919531894084 66.43828951744453 H 0.0 **** 0.06
14934 H 9.606944673348622 79.91378738280093 67.77025211058125 H 0.0 **** 0.06
14935 H 8.676484732993334 81.3978609710991 68.08653268422796 H 0.0 **** 0.06
14936 C 86.61303911635468 61.68263046002181 27.39149086357446 C 0.0 **** -0.24
14937 H 87.6671568419759 61.511381111229525 27.60829726281753 H 0.0 **** 0.06
14938 H 86.52162199518668 62.39822443160497 26.5740621037358 H 0.0 **** 0.06
14939 H 86.12000947106384 62.08031884329168 28.27982268251344 H 0.0 **** 0.06
14940 H 86.1424730512139 60.74246449228218 27.106171706211626 H 0.0 **** 0.06
14941 C 37.26578222362295 84.19293813705508 115.83996758747668 C 0.0 **** -0.24
14942 H 38.14631189736656 84.49203312061047 115.27064052701564 H 0.0 **** 0.06
14943 H 36.59790846939026 85.04684358295026 115.95110117990902 H 0.0 **** 0.06
14944 H 37.57201697522919 83.83974314804664 116.82435984353425 H 0.0 **** 0.06
14945 H 36.747450305860355 83.39209479027045 115.3116214996405 H 0.0 **** 0.06
14946 C 45.70785584891267 3.137313098672024 108.14148994108879 C 0.0 **** -0.24
14947 H 45.562750793992876 4.18255306505597 107.86681639102349 H 0.0 **** 0.06
14948 H 46.738380365056116 2.986323976457811 108.46508870088562 H 0.0 **** 0.06
14949 H 45.50117506683577 2.5036555591586023 107.27863434217264 H 0.0 **** 0.06
14950 H 45.02975734341379 2.8773905462637117 108.95395730436874 H 0.0 **** 0.06
14951 C 19.94431719554308 40.286511904401436 55.3124897233481 C 0.0 **** -0.24
14952 H 20.52199307016309 39.70163840117033 54.59682211169889 H 0.0 **** 0.06
14953 H 20.314123980226384 40.09532156727312 56.31997807580226 H 0.0 **** 0.06
14954 H 18.89370772151915 40.00262177196453 55.25019442718092 H 0.0 **** 0.06
14955 H 20.047601871775612 41.34711354089848 55.08171699021501 H 0.0 **** 0.06
14956 C 105.14935389647061 99.97667965923509 99.17994680653771 C 0.0 **** -0.24
14957 H 104.93315962846634 101.00064593050098 98.87508013375503 H 0.0 **** 0.06
14958 H 104.32607411986001 99.32745708572287 98.87836405940968 H 0.0 **** 0.06
14959 H 105.26565128092335 99.93786048547642 100.26295721739984 H 0.0 **** 0.06
14960 H 106.06968326535105 99.64164594764753 98.7030697259851 H 0.0 **** 0.06
14961 C 81.79848764741021 50.19268320512916 102.04710330589828 C 0.0 **** -0.24
14962 H 81.0821964046483 50.84610064739549 102.54410633271564 H 0.0 **** 0.06
14963 H 82.62767554738261 50.786681931571906 101.6642881542179 H 0.0 **** 0.06
14964 H 81.30724994489748 49.67845414986046 101.22025891631819 H 0.0 **** 0.06
14965 H 82.17460891940968 49.457532638579096 102.75929293128002 H 0.0 **** 0.06
14966 C 80.3121913031857 37.29603415953369 42.63264862500927 C 0.0 **** -0.24
14967 H 80.8105161275877 38.26287473094747 42.56369041965428 H 0.0 **** 0.06
14968 H 79.5109203654381 37.24650909488793 41.8949577987988 H 0.0 **** 0.06
14969 H 79.89522690483693 37.17294287491595 43.63210637053072 H 0.0 **** 0.06
14970 H 81.0333744967055 36.50211287291383 42.44037715229476 H 0.0 **** 0.06
14971 C 101.81311103718997 55.1337124750087 5.267348450832351 C 0.0 **** -0.24
14972 H 101.41975192845723 54.730794089395296 6.200547221460262 H 0.0 **** 0.06
14973 H 101.9025265809338 56.21723247243046 5.347622142439304 H 0.0 **** 0.06
14974 H 101.13698235387594 54.88384788227942 4.45005032513283 H 0.0 **** 0.06
14975 H 102.79521970635801 54.70176854608565 5.071803963516087 H 0.0 **** 0.06
14976 C 28.55657153494684 80.01118307470281 42.15347854942851 C 0.0 **** -0.24
14977 H 28.42932732729406 80.04111109827349 43.235788032148974 H 0.0 **** 0.06
14978 H 28.748967888748496 78.98544109600286 41.83839820240608 H 0.0 **** 0.06
14979 H 29.398834951483593 80.64273105237163 41.86929179363642 H 0.0 **** 0.06
14980 H 27.650016675165546 80.37595462032476 41.67049658394755 H 0.0 **** 0.06
14981 C 57.948459944164476 57.19374817571417 78.89280349223264 C 0.0 **** -0.24
14982 H 57.71470505432479 56.141585324877404 78.72748074812145 H 0.0 **** 0.06
14983 H 58.752264464316205 57.275990555996366 79.62525289417229 H 0.0 **** 0.06
14984 H 57.06337356997448 57.70883360447612 79.26448696855175 H 0.0 **** 0.06
14985 H 58.26546577486395 57.64725674225085 77.95339043865877 H 0.0 **** 0.06
14986 C 112.99973530670097 74.98096553075132 16.72774289178213 C 0.0 **** -0.24
14987 H 112.7515402349344 74.31178906088539 15.903099510824802 H 0.0 **** 0.06
14988 H 113.43922421254716 75.8960631198369 16.3323615546429 H 0.0 **** 0.06
14989 H 113.71418694393152 74.49086988338948 17.389871836307847 H 0.0 **** 0.06
14990 H 112.09361054735005 75.22235749964065 17.284184674235462 H 0.0 **** 0.06
14991 C 97.08377920846561 44.18098827457155 60.84170347231472 C 0.0 **** -0.24
14992 H 98.17381512564037 44.18135813180834 60.83903203758578 H 0.0 **** 0.06
14993 H 96.71832033745281 43.991344189727414 59.8324089119167 H 0.0 **** 0.06
14994 H 96.72131634399787 45.15010435513935 61.183864598661415 H 0.0 **** 0.06
14995 H 96.72276245055602 43.3999726352632 61.51215491848458 H 0.0 **** 0.06
14996 C 36.98195501490281 72.34554800663864 23.656300097215677 C 0.0 **** -0.24
14997 H 36.812172446375 72.65299836810505 22.62504860050953 H 0.0 **** 0.06
14998 H 37.17754360319296 73.22561759918392 24.27013905972322 H 0.0 **** 0.06
14999 H 37.83985283268052 71.67429920417504 23.699264811212714 H 0.0 **** 0.06
15000 H 36.09841159697183 71.82896982575767 24.031686031001215 H 0.0 **** 0.06
15001 C 58.87260232387956 101.56343262892463 52.5418776207772 C 0.0 **** -0.24
15002 H 58.229704962773354 102.06665324974793 51.818778985588864 H 0.0 **** 0.06
15003 H 59.26195034246436 102.29354664066338 53.250931341792636 H 0.0 **** 0.06
15004 H 59.701715108691616 101.08566378696071 52.01866488067381 H 0.0 **** 0.06
15005 H 58.29721499568768 100.80799546379774 53.0761431242655 H 0.0 **** 0.06
15006 C 4.651928309141624 20.891446553210926 8.790191762130753 C 0.0 **** -0.24
15007 H 3.6044115860502615 21.160592586412378 8.65618925251924 H 0.0 **** 0.06
15008 H 5.088770408439217 20.63819355808161 7.822931913979559 H 0.0 **** 0.06
15009 H 4.72379111316647 20.031628596621772 9.456575594852414 H 0.0 **** 0.06
15010 H 5.191762760643087 21.733534519931567 9.223178118864027 H 0.0 **** 0.06
15011 C 77.07204993493622 70.06067173909554 111.50832114073154 C 0.0 **** -0.24
15012 H 77.03379014747037 70.7663154161545 110.67828573562355 H 0.0 **** 0.06
15013 H 76.08357085281423 69.62853455779683 111.6626944037198 H 0.0 **** 0.06
15014 H 77.38682663531745 70.58080306077647 112.41225395079579 H 0.0 **** 0.06
15015 H 77.78405826764885 69.26807529845675 111.27807216642097 H 0.0 **** 0.06
15016 C 35.25404336650169 93.83943661491023 37.83227607377415 C 0.0 **** -0.24
15017 H 35.46558262362885 93.95871787029822 36.77017361556719 H 0.0 **** 0.06
15018 H 35.78835255438182 92.96868685175934 38.21366717529179 H 0.0 **** 0.06
15019 H 34.182309250518784 93.7001204901299 37.97631638188203 H 0.0 **** 0.06
15020 H 35.57975602929341 94.72995496270272 38.37032526520622 H 0.0 **** 0.06
15021 C 83.434933574942 106.21132024830737 42.27542957370292 C 0.0 **** -0.24
15022 H 83.04283459039019 106.93701680216003 41.56282275916408 H 0.0 **** 0.06
15023 H 84.31861154426585 105.73063426357135 41.85536312973716 H 0.0 **** 0.06
15024 H 82.6748037685361 105.45775358408164 42.48053078576737 H 0.0 **** 0.06
15025 H 83.70202028748295 106.71977236088571 43.20104051750775 H 0.0 **** 0.06
15026 C 19.488162211120596 103.89741555461009 35.3301260930448 C 0.0 **** -0.24
15027 H 19.732961907916632 102.83692774875863 35.27014030593082 H 0.0 **** 0.06
15028 H 18.49173516306078 104.06373513513114 34.91896603799708 H 0.0 **** 0.06
15029 H 20.21753122487712 104.47105661945267 34.75897612138404 H 0.0 **** 0.06
15030 H 19.509085140834685 104.21594508193601 36.37194598762224 H 0.0 **** 0.06
15031 C 8.088721815432848 69.14346506766697 39.732410220935606 C 0.0 **** -0.24
15032 H 7.245461906141259 68.45622155163184 39.791769927061864 H 0.0 **** 0.06
15033 H 8.362647504255847 69.46926559143617 40.73677340811162 H 0.0 **** 0.06
15034 H 7.810080561284394 70.00958528514738 39.1324632495722 H 0.0 **** 0.06
15035 H 8.936930262340098 68.63793129532456 39.27068669850007 H 0.0 **** 0.06
15036 C 96.70432821549053 51.685361318839625 40.18436149854574 C 0.0 **** -0.24
15037 H 97.07173599370333 51.109656685532514 41.03304058138889 H 0.0 **** 0.06
15038 H 96.25687951295706 52.61348363178371 40.54224037959824 H 0.0 **** 0.06
15039 H 95.95550850402546 51.104179302548175 39.64653248014173 H 0.0 **** 0.06
15040 H 97.53459051979121 51.91600548919325 39.516341003467005 H 0.0 **** 0.06
15041 C 48.89130073714901 78.91196697300643 63.370043874916 C 0.0 **** -0.24
15042 H 47.9774435236919 78.91876953075891 63.96425789170231 H 0.0 **** 0.06
15043 H 49.2033055169139 77.88242600137255 63.196337405136056 H 0.0 **** 0.06
15044 H 49.677077927237605 79.44449671556976 63.906905046403715 H 0.0 **** 0.06
15045 H 48.706794222307536 79.40354253703816 62.41434651940259 H 0.0 **** 0.06
15046 C 71.49725432222482 32.859625743970426 36.55076422593879 C 0.0 **** -0.24
15047 H 71.27260110374061 32.45861349383651 37.53923359343385 H 0.0 **** 0.06
15048 H 71.35272408571655 33.94056265352964 36.55624603095738 H 0.0 **** 0.06
15049 H 70.83194436552844 32.40854921675833 35.815003966637846 H 0.0 **** 0.06
15050 H 72.53139014817623 32.63244730588872 36.29286388048541 H 0.0 **** 0.06
15051 C 60.9306439168928 11.587880873410995 50.343430573732746 C 0.0 **** -0.24
15052 H 61.92454569580932 11.173476256445195 50.513408977451604 H 0.0 **** 0.06
15053 H 60.7098128323233 12.328654584163623 51.11237696397228 H 0.0 **** 0.06
15054 H 60.191225393469374 10.787883865738149 50.387358208217165 H 0.0 **** 0.06
15055 H 60.897342621469456 12.06099929851882 49.361849925414106 H 0.0 **** 0.06
15056 C 101.10971423234145 65.70411678917893 7.178915324860142 C 0.0 **** -0.24
15057 H 101.20928808497365 64.68833831262921 7.5627470054396895 H 0.0 **** 0.06
15058 H 101.99667896685537 66.28076785863024 7.443041668397498 H 0.0 **** 0.06
15059 H 100.22716066416731 66.17231207595412 7.615616577120107 H 0.0 **** 0.06
15060 H 101.0060157103801 65.6736956603412 6.093961509372633 H 0.0 **** 0.06
15061 C 55.782648926072454 41.253596636261676 33.21807858550898 C 0.0 **** -0.24
15062 H 55.20620818336735 40.597273222548466 33.869791863555776 H 0.0 **** 0.06
15063 H 55.35605542700998 42.25654594218004 33.24282265365596 H 0.0 **** 0.06
15064 H 55.75252442893728 40.87053804129181 32.1982873479497 H 0.0 **** 0.06
15065 H 56.81674612566337 41.290105098033536 33.56174953869041 H 0.0 **** 0.06
15066 C 10.187246996502395 21.027043092589537 68.74831877680083 C 0.0 **** -0.24
15067 H 10.08107468287669 20.231269963325673 69.4858160004822 H 0.0 **** 0.06
15068 H 10.820890597053818 21.815113497203726 69.15446205136178 H 0.0 **** 0.06
15069 H 9.204393474313576 21.436384528160204 68.5125049206442 H 0.0 **** 0.06
15070 H 10.64061620882218 20.624367796402368 67.84246032084488 H 0.0 **** 0.06
15071 C 12.077226077913451 58.46396571861781 42.88526152527828 C 0.0 **** -0.24
15072 H 12.020674541916776 59.54957422455103 42.960988853964864 H 0.0 **** 0.06
15073 H 13.11631412780298 58.14665650306129 42.97569648952407 H 0.0 **** 0.06
15074 H 11.682934989268404 58.145998081414 41.91912965112817 H 0.0 **** 0.06
15075 H 11.487356235351456 58.01242795088948 43.68385019830998 H 0.0 **** 0.06
15076 C 14.542472259748394 76.48508855202411 6.983130481341746 C 0.0 **** -0.24
15077 H 14.406548937646676 76.50532380821107 8.064898022395713 H 0.0 **** 0.06
15078 H 13.740853095107042 77.04807900131493 6.505894699527291 H 0.0 **** 0.06
15079 H 14.520018213431598 75.45275347606577 6.63416677303907 H 0.0 **** 0.06
15080 H 15.503791848072012 76.93313353363271 6.730035713268403 H 0.0 **** 0.06
15081 C 5.572497593490217 78.47983119636731 95.680925445859 C 0.0 **** -0.24
15082 H 5.976920327800187 79.06158178349418 96.5097246508837 H 0.0 **** 0.06
15083 H 5.244238490454007 77.50710023044877 96.04733642429758 H 0.0 **** 0.06
15084 H 6.343632352266571 78.34151845474165 94.92358384908118 H 0.0 **** 0.06
15085 H 4.72600303146803 79.00936029147826 95.24535871229571 H 0.0 **** 0.06
15086 C 14.2654420844502 9.760619532466137 53.91953883173094 C 0.0 **** -0.24
15087 H 13.57605629356624 10.16015895263024 54.663091810321596 H 0.0 **** 0.06
15088 H 14.04469802934284 8.705996637376415 53.74899471978601 H 0.0 **** 0.06
15089 H 15.288681187451601 9.865113121923699 54.27956294896459 H 0.0 **** 0.06
15090 H 14.151151214670705 10.310923059922985 52.985783416215156 H 0.0 **** 0.06
15091 C 61.04784162964631 100.05026431627394 44.17563148287667 C 0.0 **** -0.24
15092 H 61.186888356565426 101.11313996545408 43.975231893252726 H 0.0 **** 0.06
15093 H 60.20417114277485 99.9160566195529 44.85231674875724 H 0.0 **** 0.06
15094 H 61.951056180689584 99.6472145530926 44.635180185603 H 0.0 **** 0.06
15095 H 60.85131611141849 99.52664287908343 43.24066206408159 H 0.0 **** 0.06
15096 C 72.222356107584 20.412996751577452 12.678620076568109 C 0.0 **** -0.24
15097 H 72.87903531105769 21.011907100516964 12.048001049303394 H 0.0 **** 0.06
15098 H 71.59199922024033 21.07254897651319 13.27546147448038 H 0.0 **** 0.06
15099 H 72.82318190285264 19.788466977726102 13.339595479822492 H 0.0 **** 0.06
15100 H 71.5946578285704 19.77988390941306 12.051580553298038 H 0.0 **** 0.06
15101 C 8.270792755227745 76.02872166894164 65.38319329392738 C 0.0 **** -0.24
15102 H 8.75779460686013 75.59621389110856 66.25690821259155 H 0.0 **** 0.06
15103 H 7.294899666414494 75.56315587179864 65.24378826060246 H 0.0 **** 0.06
15104 H 8.886059661207128 75.85654749820378 64.50031944514814 H 0.0 **** 0.06
15105 H 8.142826650770957 77.10111360880308 65.53312600602925 H 0.0 **** 0.06
15106 C 84.29284386449561 101.00880466552377 91.34406054757065 C 0.0 **** -0.24
15107 H 84.63859724233265 100.1395463330287 91.90275015255963 H 0.0 **** 0.06
15108 H 84.20267780548272 100.74878829522049 90.28828771574541 H 0.0 **** 0.06
15109 H 85.00870698106701 101.8224995029463 91.45881793169923 H 0.0 **** 0.06
15110 H 83.32125318156784 101.3225987238464 91.72504791480591 H 0.0 **** 0.06
15111 C 63.289695999177354 22.21196982554858 71.47063374176412 C 0.0 **** -0.24
15112 H 64.33939466464824 22.466271422589983 71.61903187309122 H 0.0 **** 0.06
15113 H 63.13416214228755 21.900266372544024 70.43830400538877 H 0.0 **** 0.06
15114 H 62.670927606804355 23.08347534188593 71.68497551240443 H 0.0 **** 0.06
15115 H 63.01534523914984 21.39768463360943 72.14243129010106 H 0.0 **** 0.06
15116 C 87.08177593320744 61.56312488012005 46.31850430107656 C 0.0 **** -0.24
15117 H 86.34149140095892 62.33357285606461 46.10317364918288 H 0.0 **** 0.06
15118 H 87.68317987287836 61.8663556792799 47.17504613075971 H 0.0 **** 0.06
15119 H 87.72739859098812 61.427488271565274 45.45023376549253 H 0.0 **** 0.06
15120 H 86.57460515665096 60.62446151501667 46.54345875703916 H 0.0 **** 0.06
15121 C 59.63833564128918 102.39948211607475 32.21984429687561 C 0.0 **** -0.24
15122 H 60.41850055827084 103.0270273009738 32.650066658880675 H 0.0 **** 0.06
15123 H 59.50724818656294 102.65196436916017 31.167436399140797 H 0.0 **** 0.06
15124 H 58.70205473308341 102.56761033047428 32.75304369427941 H 0.0 **** 0.06
15125 H 59.924013363905495 101.3514323608155 32.310461768061145 H 0.0 **** 0.06
15126 C 36.97499415778387 77.9441776789842 66.1222946474266 C 0.0 **** -0.24
15127 H 36.95927534436862 78.67429485362578 66.93090848918555 H 0.0 **** 0.06
15128 H 35.95122147006384 77.69838719771002 65.83574405731832 H 0.0 **** 0.06
15129 H 37.48458014543388 77.04145121155017 66.45782193528152 H 0.0 **** 0.06
15130 H 37.50173971536722 78.36269092685467 65.26465524098074 H 0.0 **** 0.06
15131 C 79.62258465311271 14.146101645559611 10.258822326782052 C 0.0 **** -0.24
15132 H 79.9906711984134 13.274747504195744 9.71680493806548 H 0.0 **** 0.06
15133 H 79.1692944453468 14.845331543349943 9.555081467399944 H 0.0 **** 0.06
15134 H 80.45302377777392 14.633260798488834 10.770504286942113 H 0.0 **** 0.06
15135 H 78.87797561145163 13.83140048201679 10.98981692741826 H 0.0 **** 0.06
15136 C 106.0377970032666 104.15447123523069 99.75607979474893 C 0.0 **** -0.24
15137 H 105.9788727810236 103.86691546214999 100.8059594071278 H 0.0 **** 0.06
15138 H 105.03955405549851 104.13249702070783 99.31736029545911 H 0.0 **** 0.06
15139 H 106.68437527940608 103.45588767354243 99.22405613959097 H 0.0 **** 0.06
15140 H 106.44734172118001 105.16133288944968 99.67752868369715 H 0.0 **** 0.06
15141 C 99.18456487929001 8.707448650613685 38.15955970589522 C 0.0 **** -0.24
15142 H 98.36859314839842 8.25920894977105 37.59225740462793 H 0.0 **** 0.06
15143 H 100.11022895342415 8.17091622478813 37.94866254777244 H 0.0 **** 0.06
15144 H 98.96316070065893 8.645571058671294 39.224892472588664 H 0.0 **** 0.06
15145 H 99.29612009803913 9.752294185692563 37.87157750092709 H 0.0 **** 0.06
15146 C 113.31504856810666 39.37113517927833 35.141643223469885 C 0.0 **** -0.24
15147 H 112.44789853150408 39.6442672133377 34.539236920593254 H 0.0 **** 0.06
15148 H 113.37802398911026 40.031972251573116 36.006771589062964 H 0.0 **** 0.06
15149 H 114.21937212554661 39.469878912893066 34.54159479301606 H 0.0 **** 0.06
15150 H 113.21264613236828 38.33989799872919 35.4773128534147 H 0.0 **** 0.06
15151 C 33.69639013446846 53.145233582848824 102.48164991628894 C 0.0 **** -0.24
15152 H 33.944452922925336 53.81924759754923 103.30066972288154 H 0.0 **** 0.06
15153 H 33.901864392074685 53.63868129624423 101.53105835048493 H 0.0 **** 0.06
15154 H 32.63951179787688 52.88261149559076 102.53476705132249 H 0.0 **** 0.06
15155 H 34.29973142499679 52.24039394201076 102.56010454046731 H 0.0 **** 0.06
15156 C 2.601568497714709 72.09406536900639 84.11534458855346 C 0.0 **** -0.24
15157 H 3.445309891531352 71.87000196645084 83.46336409241039 H 0.0 **** 0.06
15158 H 2.365128108104713 71.21701723303815 84.71919405253209 H 0.0 **** 0.06
15159 H 1.736175617255114 72.36285361325116 83.51044579531154 H 0.0 **** 0.06
15160 H 2.8603957953058057 72.92690140143998 84.7701622867946 H 0.0 **** 0.06
15161 C 103.71388010981869 83.55024295504387 69.19323763960551 C 0.0 **** -0.24
15162 H 102.9654403315651 84.33202962225462 69.31844950706687 H 0.0 **** 0.06
15163 H 103.24465318635421 82.66414308877145 68.76495417061633 H 0.0 **** 0.06
15164 H 104.14522543106943 83.30088621412983 70.16301443561417 H 0.0 **** 0.06
15165 H 104.50091174297609 83.90385325364088 68.52583098765578 H 0.0 **** 0.06
15166 C 31.923468029317746 51.47957847713792 90.34137942958137 C 0.0 **** -0.24
15167 H 32.1159188183218 50.76119126344895 89.54491095075343 H 0.0 **** 0.06
15168 H 31.30079476919383 52.28789398891456 89.95866206323137 H 0.0 **** 0.06
15169 H 32.86848649784548 51.88697619895481 90.69920578315669 H 0.0 **** 0.06
15170 H 31.40856133210015 50.98084808952501 91.16286387721408 H 0.0 **** 0.06
15171 C 85.02005578049997 48.436480986033274 69.51399743073193 C 0.0 **** -0.24
15172 H 84.65647027404961 47.506554469704696 69.95217076719675 H 0.0 **** 0.06
15173 H 84.23627380869843 48.87701378610274 68.89699556777822 H 0.0 **** 0.06
15174 H 85.89573409640062 48.23011270133364 68.89881032675859 H 0.0 **** 0.06
15175 H 85.29038816483043 49.13098753755341 70.30927135086688 H 0.0 **** 0.06
15176 C 43.83296460131987 111.21984074649646 18.700654068281864 C 0.0 **** -0.24
15177 H 44.0088996248154 112.2844668022832 18.855756672230825 H 0.0 **** 0.06
15178 H 44.380243300156735 110.64900031611573 19.450957214514318 H 0.0 **** 0.06
15179 H 44.17679606901777 110.93632487105448 17.70633309847696 H 0.0 **** 0.06
15180 H 42.76684548773483 111.01160632479883 18.78955860812539 H 0.0 **** 0.06
15181 C 15.052606537346804 35.26783730638183 49.5861597398133 C 0.0 **** -0.24
15182 H 15.371635365506592 36.28861188006952 49.79848140370987 H 0.0 **** 0.06
15183 H 15.859730694511228 34.57788454304277 49.82979117171365 H 0.0 **** 0.06
15184 H 14.803588061905032 35.17851127503007 48.52937019047684 H 0.0 **** 0.06
15185 H 14.175238093569135 35.02931270390258 50.18733957660615 H 0.0 **** 0.06
15186 C 55.86171643998617 36.99036165707929 69.88720331854688 C 0.0 **** -0.24
15187 H 56.14206642558577 38.04337399198931 69.9105371972139 H 0.0 **** 0.06
15188 H 56.692924329162594 36.4012739116921 69.5005696388663 H 0.0 **** 0.06
15189 H 54.992634073061396 36.860189512960574 69.24251532571793 H 0.0 **** 0.06
15190 H 55.618299158778655 36.65693361978094 70.89619507426258 H 0.0 **** 0.06
15191 C 110.04646819525644 99.70911148410622 77.56071491437442 C 0.0 **** -0.24
15192 H 110.90405985326512 99.89696872024714 76.91495198858755 H 0.0 **** 0.06
15193 H 110.0721853110343 98.67571383981769 77.90766384048402 H 0.0 **** 0.06
15194 H 109.1260991522235 99.88280950601845 77.00216907320922 H 0.0 **** 0.06
15195 H 110.08266608546586 100.3814364857871 78.41792164321052 H 0.0 **** 0.06
15196 C 117.65509498997861 110.29614880956805 63.69837301283803 C 0.0 **** -0.24
15197 H 118.04068028200703 109.68408837526835 62.88287280428543 H 0.0 **** 0.06
15198 H 116.567313512904 110.33853431865478 63.638418625198284 H 0.0 **** 0.06
15199 H 118.06352026575927 111.30453899576241 63.618143887200404 H 0.0 **** 0.06
15200 H 117.95068078573534 109.85979692144633 64.65228999800073 H 0.0 **** 0.06
15201 C 53.514016099492224 74.25143291870674 95.55830124476523 C 0.0 **** -0.24
15202 H 53.794992762904016 73.74388544590337 94.6351510483658 H 0.0 **** 0.06
15203 H 53.32722345093589 75.30464367023265 95.35043074483093 H 0.0 **** 0.06
15204 H 54.323892169468735 74.16132342385836 96.28190097592102 H 0.0 **** 0.06
15205 H 52.61153276287189 73.79445849645595 95.96385241847133 H 0.0 **** 0.06
15206 C 23.32838529774898 19.143367569149433 98.84136237148277 C 0.0 **** -0.24
15207 H 23.681762377107475 18.620575027300124 97.95142176169887 H 0.0 **** 0.06
15208 H 23.156917281919135 18.421632292246137 99.64082253755873 H 0.0 **** 0.06
15209 H 22.396876610946038 19.66110009416166 98.6116556178568 H 0.0 **** 0.06
15210 H 24.078618616034163 19.867424481473417 99.15853283327249 H 0.0 **** 0.06
15211 C 32.16826087506575 42.33093592255241 27.135198036135904 C 0.0 **** -0.24
15212 H 32.99512592676153 42.98943864706388 26.868192515909897 H 0.0 **** 0.06
15213 H 32.56071263122928 41.42133336992816 27.59113273872603 H 0.0 **** 0.06
15214 H 31.604732611187444 42.07415913165059 26.238801315021618 H 0.0 **** 0.06
15215 H 31.514073148005693 42.838861950591024 27.84332521085308 H 0.0 **** 0.06
15216 C 54.75562198573496 68.02735886675816 58.794534717692464 C 0.0 **** -0.24
15217 H 53.81597647537552 68.37147185222759 59.22648393585727 H 0.0 **** 0.06
15218 H 55.51474763031828 67.96976122423752 59.576297783547155 H 0.0 **** 0.06
15219 H 55.08025621946379 68.72848884823279 58.02516875862293 H 0.0 **** 0.06
15220 H 54.61336692258152 67.04190529062387 58.35258423182642 H 0.0 **** 0.06
15221 C 96.753969078859 23.31352301348963 1.2679457068549453 C 0.0 **** -0.24
15222 H 97.83018956741753 23.431397602147953 1.1414324135050435 H 0.0 **** 0.06
15223 H 96.36198784339447 24.149637825975873 1.8465779461967173 H 0.0 **** 0.06
15224 H 96.54973936131259 22.380049207799402 1.7918048588995958 H 0.0 **** 0.06
15225 H 96.27431958980577 23.29278179021034 0.28867821635971325 H 0.0 **** 0.06
15226 C 12.798810245610923 96.87424699280132 21.0328791795966 C 0.0 **** -0.24
15227 H 12.293563937362052 97.77219829624573 21.38985711701538 H 0.0 **** 0.06
15228 H 13.743724461676265 97.15019826962703 20.56486253102803 H 0.0 **** 0.06
15229 H 12.165468401578238 96.3673233284174 20.303722013014298 H 0.0 **** 0.06
15230 H 12.989105662395673 96.20755775922402 21.873783854417685 H 0.0 **** 0.06
15231 C 60.073094854068366 85.99710423398125 16.391416794367217 C 0.0 **** -0.24
15232 H 60.2078081941625 86.00533932211712 15.309379769930985 H 0.0 **** 0.06
15233 H 60.92652839819103 86.48281431187533 16.8665510777536 H 0.0 **** 0.06
15234 H 59.999747018989304 84.96759924599291 16.74055013352526 H 0.0 **** 0.06
15235 H 59.16023142158114 86.53491421432665 16.647399893340776 H 0.0 **** 0.06
15236 C 115.96677290444134 23.53618103024135 13.454057534788916 C 0.0 **** -0.24
15237 H 116.48450793780354 22.57932869434805 13.518436038400793 H 0.0 **** 0.06
15238 H 114.93508637832016 23.414456027018133 13.784279449144108 H 0.0 **** 0.06
15239 H 115.98069360291083 23.887300911969078 12.42193513396748 H 0.0 **** 0.06
15240 H 116.4705219147052 24.26404416536593 14.091474088228239 H 0.0 **** 0.06
15241 C 51.466177263032435 24.20529962138893 63.2361777681933 C 0.0 **** -0.24
15242 H 52.12441222175819 25.02121096123667 63.53515437195824 H 0.0 **** 0.06
15243 H 50.5105687874905 24.30267754347299 63.75004396724876 H 0.0 **** 0.06
15244 H 51.92541392476093 23.25301876587121 63.50076690062849 H 0.0 **** 0.06
15245 H 51.306243205764076 24.24463838058955 62.15834792449357 H 0.0 **** 0.06
15246 C 65.7818080385706 83.56366737451836 27.95037395524713 C 0.0 **** -0.24
15247 H 65.07133833605428 83.16283972550153 27.227202755171078 H 0.0 **** 0.06
15248 H 66.3628432246158 82.7469754727941 28.379865602402816 H 0.0 **** 0.06
15249 H 65.24099729780463 84.08058064000494 28.74343890757254 H 0.0 **** 0.06
15250 H 66.45252459749307 84.26345772522617 27.451323494785328 H 0.0 **** 0.06
15251 C 11.583209265761408 48.21861910045823 71.46686714034905 C 0.0 **** -0.24
15252 H 12.414440122891783 48.19629609799051 72.17190936591422 H 0.0 **** 0.06
15253 H 10.78560395380254 47.56837834185376 71.82592602154952 H 0.0 **** 0.06
15254 H 11.924958194026619 47.87096854178645 70.49214394528445 H 0.0 **** 0.06
15255 H 11.209811838093831 49.23911559345882 71.37890768542539 H 0.0 **** 0.06
15256 C 58.27028360543636 48.82795880559269 70.94031029842262 C 0.0 **** -0.24
15257 H 57.41975413418544 48.20777487624912 71.22302229476986 H 0.0 **** 0.06
15258 H 58.0131346398706 49.87954029154463 71.07336084463066 H 0.0 **** 0.06
15259 H 58.52228862844771 48.64430721353537 69.89565621416602 H 0.0 **** 0.06
15260 H 59.12521669084265 48.580872643213155 71.56907286914117 H 0.0 **** 0.06
15261 C 13.977566745317716 86.44763935412763 66.97671113564448 C 0.0 **** -0.24
15262 H 14.42264467705624 87.33260501745255 67.4319693074591 H 0.0 **** 0.06
15263 H 13.568469464169912 85.80515005670236 67.75741759611535 H 0.0 **** 0.06
15264 H 14.74107755003342 85.90313795875065 66.4199085402777 H 0.0 **** 0.06
15265 H 13.179773682751755 86.75023513999818 66.29888700456354 H 0.0 **** 0.06
15266 C 26.43906989735595 86.33338656840107 16.077584690528923 C 0.0 **** -0.24
15267 H 26.1784502449334 86.95915730767396 16.93040522994283 H 0.0 **** 0.06
15268 H 27.082596557184388 86.89480558144581 15.399173469785989 H 0.0 **** 0.06
15269 H 25.53072552530122 86.03554220311148 15.55440042940636 H 0.0 **** 0.06
15270 H 26.96586227233186 85.44549859388798 16.42615930822502 H 0.0 **** 0.06
15271 C 114.6245202477675 101.71960822405512 24.841601060038272 C 0.0 **** -0.24
15272 H 115.65218521768323 102.06900173530093 24.738128848702445 H 0.0 **** 0.06
15273 H 114.60491879974974 100.8339797216048 25.4780094225341 H 0.0 **** 0.06
15274 H 114.22540675558582 101.46945223548761 23.858509515577367 H 0.0 **** 0.06
15275 H 114.01751767697797 102.50469558446693 25.292469427140986 H 0.0 **** 0.06
15276 C 8.87278471242223 29.20327801241757 49.88743759606973 C 0.0 **** -0.24
15277 H 7.888841248235224 29.121440200278187 49.42526725844078 H 0.0 **** 0.06
15278 H 9.29197393214622 28.20542141095723 50.026568210442804 H 0.0 **** 0.06
15279 H 8.780375191827318 29.697072794651945 50.85415663148609 H 0.0 **** 0.06
15280 H 9.529669080779968 29.786815116932814 49.24317454105852 H 0.0 **** 0.06
15281 C 52.2274383732356 90.11368631702396 44.47750550017369 C 0.0 **** -0.24
15282 H 51.73838916301179 91.08722971137018 44.47987862425188 H 0.0 **** 0.06
15283 H 52.587495638788056 89.884699376713 45.48091686309206 H 0.0 **** 0.06
15284 H 53.06826496619138 90.13117923258807 43.78402787702913 H 0.0 **** 0.06
15285 H 51.51389446714825 89.35096839059855 44.16392123179517 H 0.0 **** 0.06
15286 C 20.01092039033544 19.260016359705673 43.04453860439648 C 0.0 **** -0.24
15287 H 20.039258478265886 19.160615222005788 41.959241888205014 H 0.0 **** 0.06
15288 H 19.767808799056596 18.29637119504804 43.49161386665429 H 0.0 **** 0.06
15289 H 19.252473451081475 19.992779359618396 43.32265958414959 H 0.0 **** 0.06
15290 H 20.985838242277364 19.59252341599938 43.40422171923444 H 0.0 **** 0.06
15291 C 37.59322833756028 77.65271287984376 74.64176514317472 C 0.0 **** -0.24
15292 H 37.39746778038591 78.3257299907566 73.80745267297903 H 0.0 **** 0.06
15293 H 37.71459281546305 78.2333742763019 75.55653976620476 H 0.0 **** 0.06
15294 H 38.50428102654257 77.0869793224415 74.44592559657843 H 0.0 **** 0.06
15295 H 36.7554355689407 76.96344212668055 74.75616702524741 H 0.0 **** 0.06
15296 C 34.23765695016317 51.68388072855184 98.06734294706399 C 0.0 **** -0.24
15297 H 33.743360483508525 51.04130234915297 97.33842962927898 H 0.0 **** 0.06
15298 H 35.27339974680547 51.84281556019121 97.76701786566639 H 0.0 **** 0.06
15299 H 34.21139415935471 51.20760233904306 99.04734280454468 H 0.0 **** 0.06
15300 H 33.7207140817294 52.641620890518695 98.11511683771795 H 0.0 **** 0.06
15301 C 10.396033930418469 65.61308497187974 80.83259144062734 C 0.0 **** -0.24
15302 H 9.81683939468087 64.88477550221631 80.2652718173963 H 0.0 **** 0.06
15303 H 9.731931559823806 66.16123487751247 81.50254324659122 H 0.0 **** 0.06
15304 H 10.876357930562676 66.30933486678327 80.14619838953237 H 0.0 **** 0.06
15305 H 11.156334352246006 65.0963778773745 81.41821726853462 H 0.0 **** 0.06
15306 C 81.44037485003699 25.47752310507215 10.926028933336589 C 0.0 **** -0.24
15307 H 81.7487772173952 26.356058858705495 10.35914491533357 H 0.0 **** 0.06
15308 H 80.74953906972192 24.88340226186307 10.327773202122938 H 0.0 **** 0.06
15309 H 80.94791459350236 25.79256430643747 11.845347940480085 H 0.0 **** 0.06
15310 H 82.31721119034819 24.877622012009112 11.17083561695711 H 0.0 **** 0.06
15311 C 13.895566747061608 65.5534225155941 48.815979315209404 C 0.0 **** -0.24
15312 H 14.232055658793541 65.1569515244415 47.85794928307433 H 0.0 **** 0.06
15313 H 14.16407072871803 66.60786674010626 48.88714540042969 H 0.0 **** 0.06
15314 H 14.3719046256291 65.00123472488565 49.62569617947929 H 0.0 **** 0.06
15315 H 12.813470176389274 65.44789921648905 48.89253912309283 H 0.0 **** 0.06
15316 C 21.068352891821434 93.52029126409377 34.54094790133041 C 0.0 **** -0.24
15317 H 22.136643476906812 93.65933261325137 34.373191129780565 H 0.0 **** 0.06
15318 H 20.809486686133198 93.86743503288218 35.54168368698453 H 0.0 **** 0.06
15319 H 20.821383278211215 92.46241879739279 34.44712642446649 H 0.0 **** 0.06
15320 H 20.506490308158618 94.09071102920879 33.801583798932825 H 0.0 **** 0.06
15321 C 89.16183829324163 106.20878705731445 77.24184703283845 C 0.0 **** -0.24
15322 H 89.5910295065533 105.33890101231867 76.74391452359748 H 0.0 **** 0.06
15323 H 89.92624512767404 106.69301048658332 77.84951505750689 H 0.0 **** 0.06
15324 H 88.33763514190534 105.89080638131406 77.88019726051868 H 0.0 **** 0.06
15325 H 88.79255314093524 106.91020133597243 76.49390182357388 H 0.0 **** 0.06
15326 C 1.7351487409815878 39.02193921583961 94.24725077180435 C 0.0 **** -0.24
15327 H 2.576431147468238 38.65535589926185 94.83514373278311 H 0.0 **** 0.06
15328 H 0.8751199582987432 38.36870264231412 94.39723772375899 H 0.0 **** 0.06
15329 H 2.0067740542859447 39.0289344414453 93.19107824940559 H 0.0 **** 0.06
15330 H 1.484168882008598 40.03392074808832 94.56424608346325 H 0.0 **** 0.06
15331 C 46.05619878401303 103.80512725442114 52.58837950120403 C 0.0 **** -0.24
15332 H 46.334091894846466 102.85398561913016 53.04253650135121 H 0.0 **** 0.06
15333 H 46.95243954769918 104.3155412112333 52.236293384070564 H 0.0 **** 0.06
15334 H 45.55056307418442 104.42567012749728 53.32814070194087 H 0.0 **** 0.06
15335 H 45.38618511776441 103.62477538311737 51.74719193961482 H 0.0 **** 0.06
15336 C 27.983401230052408 21.553530237572176 13.157363297427679 C 0.0 **** -0.24
15337 H 27.855309301856153 20.63800524496537 12.580076539836597 H 0.0 **** 0.06
15338 H 28.840125578960652 22.108094579392855 12.773239090142965 H 0.0 **** 0.06
15339 H 28.15261979778286 21.301525525767204 14.204306122173364 H 0.0 **** 0.06
15340 H 27.085550241609695 22.166495600163216 13.071831437557876 H 0.0 **** 0.06
15341 C 70.66714410406075 32.32232367687098 46.6529954286476 C 0.0 **** -0.24
15342 H 71.28247848424553 31.96248039027705 47.478137859064304 H 0.0 **** 0.06
15343 H 69.75272100680752 32.76547473978758 47.047749935054846 H 0.0 **** 0.06
15344 H 70.41364648502542 31.488572924537294 45.998173915084536 H 0.0 **** 0.06
15345 H 71.21990350404093 33.07356710715558 46.08849392211313 H 0.0 **** 0.06
15346 C 112.47530874169648 69.75240587105668 118.4467174870602 C 0.0 **** -0.24
15347 H 112.1968949252645 68.90455412786369 119.07251036864623 H 0.0 **** 0.06
15348 H 112.08618072840382 69.60380814782957 117.43946147539168 H 0.0 **** 0.06
15349 H 113.56179354148043 69.8340906379263 118.40875731234465 H 0.0 **** 0.06
15350 H 112.05782056577463 70.66747534809855 118.86781141374517 H 0.0 **** 0.06
15351 C 85.63161190330453 74.25748897473699 11.461899954415912 C 0.0 **** -0.24
15352 H 85.32667651853265 73.22108607683865 11.317075878834714 H 0.0 **** 0.06
15353 H 85.12803480906862 74.66493446526741 12.33926072711887 H 0.0 **** 0.06
15354 H 85.36135587674408 74.84179265002825 10.582942389612697 H 0.0 **** 0.06
15355 H 86.7108436489226 74.30039372232775 11.609634882490013 H 0.0 **** 0.06
15356 C 70.58600955993583 0.1079007778895118 55.432183039703396 C 0.0 **** -0.24
15357 H 70.05937156468585 -0.22518297392963404 56.32714799595616 H 0.0 **** 0.06
15358 H 70.1500596492397 1.043966374679087 55.0828043671981 H 0.0 **** 0.06
15359 H 70.49379646212327 -0.6495252038352533 54.65367279175635 H 0.0 **** 0.06
15360 H 71.6386280380876 0.2623578124743915 55.667395453423005 H 0.0 **** 0.06
15361 C 26.77000036160978 90.03326179790949 11.186590771090724 C 0.0 **** -0.24
15362 H 26.165608078767512 89.70548309936734 10.340279532043073 H 0.0 **** 0.06
15363 H 26.52534388383014 91.06864136475454 11.427100695933213 H 0.0 **** 0.06
15364 H 27.82650061076079 89.95988541162549 10.92787717936896 H 0.0 **** 0.06
15365 H 26.561786184860175 89.39980368645107 12.04830719352325 H 0.0 **** 0.06
15366 C 4.469949172675889 98.46402661819485 92.2343816951132 C 0.0 **** -0.24
15367 H 3.6179688858103987 99.14004156461777 92.16511462801154 H 0.0 **** 0.06
15368 H 5.307980914847063 98.98254489541313 92.70175761675995 H 0.0 **** 0.06
15369 H 4.755717700769585 98.13637293852713 91.23479028373868 H 0.0 **** 0.06
15370 H 4.196838598618621 97.5968495137858 92.83636018606887 H 0.0 **** 0.06
15371 C 56.108038327781706 79.82998615047677 21.29832461708881 C 0.0 **** -0.24
15372 H 55.35317996523141 79.17038367232365 21.725301126299456 H 0.0 **** 0.06
15373 H 56.12419524465427 80.76940314182471 21.85030758915579 H 0.0 **** 0.06
15374 H 55.86907838454129 80.02619933473272 20.252474638715654 H 0.0 **** 0.06
15375 H 57.08574436318721 79.35262565161798 21.36342013789232 H 0.0 **** 0.06
15376 C 3.084273961305314 15.902580644429321 51.13229457146396 C 0.0 **** -0.24
15377 H 3.7581270419502584 16.071684025068777 51.97277520712336 H 0.0 **** 0.06
15378 H 3.1257126118032517 14.853029499748857 50.838500614328495 H 0.0 **** 0.06
15379 H 3.3880389796193793 16.52736334092569 50.29308548277885 H 0.0 **** 0.06
15380 H 2.0657916444047384 16.15722752170555 51.42696957707335 H 0.0 **** 0.06
15381 C 107.50097954545197 111.91226624777264 34.41353239804312 C 0.0 **** -0.24
15382 H 107.59110993465933 111.11062135450211 33.68142826121908 H 0.0 **** 0.06
15383 H 106.45799308937833 112.01457785111701 34.714665604890484 H 0.0 **** 0.06
15384 H 107.84480105325017 112.84844014077906 33.97218802096603 H 0.0 **** 0.06
15385 H 108.10954858982663 111.67729148958085 35.28698885001029 H 0.0 **** 0.06
15386 C 76.98211314735556 97.88676631635289 56.228162081972506 C 0.0 **** -0.24
15387 H 76.09376305584624 98.28910024010526 55.74070323215479 H 0.0 **** 0.06
15388 H 77.19332593608056 98.46235664439232 57.130237795155956 H 0.0 **** 0.06
15389 H 77.83143960590155 97.95304639946178 55.54796865013183 H 0.0 **** 0.06
15390 H 76.8090416403445 96.84453403732334 56.49431549072454 H 0.0 **** 0.06
15391 C 112.80189861310532 109.7061088385926 47.589818485845626 C 0.0 **** -0.24
15392 H 113.20340851279971 110.67707479411573 47.29912877959782 H 0.0 **** 0.06
15393 H 113.20146053825815 109.42559357002372 48.56377944663103 H 0.0 **** 0.06
15394 H 113.08671672639325 108.9585387123361 46.849163948161106 H 0.0 **** 0.06
15395 H 111.71514706005365 109.76537864436568 47.645295445095144 H 0.0 **** 0.06
15396 C 81.8780171238929 27.81203312693964 19.140637869748872 C 0.0 **** -0.24
15397 H 80.81870324627258 27.784488033628435 19.3992341647173 H 0.0 **** 0.06
15398 H 81.98737752726024 27.786667974164033 18.056199070103375 H 0.0 **** 0.06
15399 H 82.38177111062825 26.95049658112029 19.57760949725531 H 0.0 **** 0.06
15400 H 82.32266617613575 28.728977854693397 19.528911257182585 H 0.0 **** 0.06
15401 C 42.18977798168123 23.657459263962778 107.6434642810533 C 0.0 **** -0.24
15402 H 41.584817947401234 24.441819736744662 108.09773462247222 H 0.0 **** 0.06
15403 H 42.30020980571726 23.855244478799364 106.57716254016714 H 0.0 **** 0.06
15404 H 41.701355250475785 22.69303250864982 107.78593845264118 H 0.0 **** 0.06
15405 H 43.17244003736619 23.638811234236186 108.11325255341967 H 0.0 **** 0.06
15406 C 118.81109181392065 27.1278949294545 61.13870212197486 C 0.0 **** -0.24
15407 H 118.36380350365158 26.746447930795853 62.056562089516376 H 0.0 **** 0.06
15408 H 118.21468192396313 26.808081380497896 60.284399429914515 H 0.0 **** 0.06
15409 H 119.82479661120047 26.739807663292225 61.0411398081294 H 0.0 **** 0.06
15410 H 118.84020899313677 28.217243041208945 61.17476447039792 H 0.0 **** 0.06
15411 C 37.02504384383518 61.03832263087329 58.64183754279151 C 0.0 **** -0.24
15412 H 37.46034138693126 61.9723871221232 58.997964183809216 H 0.0 **** 0.06
15413 H 36.3532714850036 60.6381394389962 59.400504673716426 H 0.0 **** 0.06
15414 H 37.82120828216483 60.31987916232122 58.44487109456523 H 0.0 **** 0.06
15415 H 36.46779479097367 61.224610927293405 57.723755992498354 H 0.0 **** 0.06
15416 C 106.23483048068348 7.898068822534 73.64077000481248 C 0.0 **** -0.24
15417 H 106.93770348527005 7.245790066351674 73.12255235781038 H 0.0 **** 0.06
15418 H 105.77108573728063 8.574909887125727 72.92334646057017 H 0.0 **** 0.06
15419 H 106.76597131268909 8.476746733639217 74.39723872633888 H 0.0 **** 0.06
15420 H 105.46533537373679 7.292677560621641 74.12082242523832 H 0.0 **** 0.06
15421 C 63.79940602404335 6.016831613599663 46.73284522604254 C 0.0 **** -0.24
15422 H 63.656483262773776 5.1681952818144055 47.40250266495133 H 0.0 **** 0.06
15423 H 64.56959530298204 6.673655651652041 47.138965049736214 H 0.0 **** 0.06
15424 H 62.86431342391933 6.56781542003705 46.64071408125463 H 0.0 **** 0.06
15425 H 64.10778259685537 5.657123157579122 45.75129885703069 H 0.0 **** 0.06
15426 C 25.25793027827502 30.623061051154593 8.278653773637252 C 0.0 **** -0.24
15427 H 26.18722880809306 31.0989554284198 7.966518677751697 H 0.0 **** 0.06
15428 H 25.221990903199554 29.60504673594164 7.889096511454397 H 0.0 **** 0.06
15429 H 24.411616231772832 31.190767936683585 7.892539842346682 H 0.0 **** 0.06
15430 H 25.211055254343243 30.597045105986325 9.367347244464096 H 0.0 **** 0.06
15431 C 81.97374371520198 30.985614324040966 50.669341932280815 C 0.0 **** -0.24
15432 H 81.77882074603053 31.964392017272253 50.22941248721065 H 0.0 **** 0.06
15433 H 81.81736340349676 30.21203260837806 49.91730262700824 H 0.0 **** 0.06
15434 H 81.2961157029145 30.822610305697495 51.5068552050636 H 0.0 **** 0.06
15435 H 83.00420332316608 30.945655046517274 51.02297287678559 H 0.0 **** 0.06
15436 C 88.66222909859508 18.015075826346447 50.51929056521919 C 0.0 **** -0.24
15437 H 88.33841104082558 17.067813333242697 50.952085302075496 H 0.0 **** 0.06
15438 H 87.81409497674048 18.504488058680465 50.04099806148002 H 0.0 **** 0.06
15439 H 89.43963408891082 17.827426040747667 49.778075576801804 H 0.0 **** 0.06
15440 H 89.05757234762899 18.657102863072055 51.30655581865506 H 0.0 **** 0.06
15441 C 86.15890776889938 30.423994173177277 20.24702407517117 C 0.0 **** -0.24
15442 H 85.52258954416862 31.052784805493843 20.870463788989227 H 0.0 **** 0.06
15443 H 86.04257957919305 29.3815360606294 20.54402142522393 H 0.0 **** 0.06
15444 H 87.1989993167193 30.72479402328281 20.3734661595191 H 0.0 **** 0.06
15445 H 85.87175240966948 30.539793295595246 19.20222414438672 H 0.0 **** 0.06
15446 C 100.99757792574783 5.892173217850329 59.56170428562812 C 0.0 **** -0.24
15447 H 101.55283886203912 6.82246241814385 59.67253183019074 H 0.0 **** 0.06
15448 H 100.96128754976803 5.613072158180669 58.50869993035169 H 0.0 **** 0.06
15449 H 99.98268314754768 6.02764467135227 59.9371489754786 H 0.0 **** 0.06
15450 H 101.49218966760199 5.104043557300622 60.12989128199067 H 0.0 **** 0.06
15451 C 84.30067137009229 26.99787682737312 93.44042411943653 C 0.0 **** -0.24
15452 H 83.50607906909721 27.640680163235388 93.06200834750189 H 0.0 **** 0.06
15453 H 84.70502161885233 26.401618462348495 92.6222649505981 H 0.0 **** 0.06
15454 H 83.89921597506321 26.335948515174664 94.20791031414146 H 0.0 **** 0.06
15455 H 85.09253368180924 27.61286495270899 93.86816500010971 H 0.0 **** 0.06
15456 C 102.9218324695203 54.46448680442626 85.2673959312736 C 0.0 **** -0.24
15457 H 101.98895331240345 53.96037347727962 85.01643824928416 H 0.0 **** 0.06
15458 H 102.86763736834229 55.50655098305783 84.94968567686064 H 0.0 **** 0.06
15459 H 103.74953200880648 53.97106641761414 84.75661374423933 H 0.0 **** 0.06
15460 H 103.08087569073129 54.419960644405826 86.34463463356752 H 0.0 **** 0.06
15461 C 41.22922567656257 96.00084429472236 13.240656238879733 C 0.0 **** -0.24
15462 H 42.08907640325732 95.40427673053955 13.545120405175322 H 0.0 **** 0.06
15463 H 41.02049667794997 95.8249463148116 12.18572940130581 H 0.0 **** 0.06
15464 H 41.44611408678373 97.05726286262654 13.398100772961882 H 0.0 **** 0.06
15465 H 40.36042754017582 95.71614742938658 13.835355445092727 H 0.0 **** 0.06
15466 C 10.20675135951194 51.84856426879401 10.474739030025717 C 0.0 **** -0.24
15467 H 9.607142042237484 51.437299478926974 9.663372008801701 H 0.0 **** 0.06
15468 H 10.911630546741094 51.09477093077989 10.824755419715444 H 0.0 **** 0.06
15469 H 9.55277878647476 52.144327425192785 11.29562553340537 H 0.0 **** 0.06
15470 H 10.754717382658043 52.71995374367373 10.114937355658952 H 0.0 **** 0.06
15471 C 104.07928672593891 39.60114516537027 113.93270675586021 C 0.0 **** -0.24
15472 H 103.57597809360095 40.493460540099534 114.30431573684933 H 0.0 **** 0.06
15473 H 103.76840016916458 39.4102217102365 112.90560532531109 H 0.0 **** 0.06
15474 H 103.81457071572135 38.74848448283893 114.55813362852871 H 0.0 **** 0.06
15475 H 105.15875321276985 39.75348144916211 113.96401821825543 H 0.0 **** 0.06
15476 C 114.12976693106978 93.5147681468047 39.180336233471415 C 0.0 **** -0.24
15477 H 114.06906412848991 93.08962310743996 38.178319039956186 H 0.0 **** 0.06
15478 H 115.17607121170903 93.61520493099968 39.46944242964296 H 0.0 **** 0.06
15479 H 113.61874936363878 92.85901120042047 39.88427043419399 H 0.0 **** 0.06
15480 H 113.65501862912433 94.49596874283031 39.187753432022284 H 0.0 **** 0.06
15481 C 74.57158338862527 36.42395270468934 104.95454263280149 C 0.0 **** -0.24
15482 H 73.53602322456925 36.1031969315569 105.0658054894302 H 0.0 **** 0.06
15483 H 74.94755883255337 36.77899353435397 105.91456091353436 H 0.0 **** 0.06
15484 H 74.62564035897344 37.23089499263726 104.22302665827067 H 0.0 **** 0.06
15485 H 75.17749547966878 35.58439188816995 104.61450334951437 H 0.0 **** 0.06
15486 C 78.93114708420066 7.28287931946781 6.2983038847514194 C 0.0 **** -0.24
15487 H 78.20340038249779 7.021204282811041 5.530044491825947 H 0.0 **** 0.06
15488 H 78.42264707166981 7.774991782300262 7.127023738805974 H 0.0 **** 0.06
15489 H 79.6778594440384 7.956254023440721 5.876747524047971 H 0.0 **** 0.06
15490 H 79.42062828621559 6.377626456605 6.657419426928698 H 0.0 **** 0.06
15491 C 19.992668586549925 71.85565827969754 61.860295812249 C 0.0 **** -0.24
15492 H 19.13945596340784 72.52531227736068 61.754134201841005 H 0.0 **** 0.06
15493 H 20.88184402634269 72.43673072886472 62.10503530557006 H 0.0 **** 0.06
15494 H 20.154752362997584 71.32117568132355 60.92413728704063 H 0.0 **** 0.06
15495 H 19.7954400294025 71.13950874494003 62.65844388794742 H 0.0 **** 0.06
15496 C 9.050559545632638 67.94273167062013 10.426323670982523 C 0.0 **** -0.24
15497 H 9.62636836761709 67.42745682754938 11.194084384494527 H 0.0 **** 0.06
15498 H 8.07151395680134 67.47220702976682 10.328922730726195 H 0.0 **** 0.06
15499 H 9.579030989063085 67.88275198146167 9.474592630764008 H 0.0 **** 0.06
15500 H 8.925193253663252 68.98839939478856 10.706291237960752 H 0.0 **** 0.06
15501 C 3.429189851263203 34.90536838361555 35.91812290894393 C 0.0 **** -0.24
15502 H 2.9570531273972165 34.40985467525155 35.06960203856397 H 0.0 **** 0.06
15503 H 3.192848106054342 34.361765397280806 36.833063870955016 H 0.0 **** 0.06
15504 H 3.0578521238886367 35.92715648584016 35.99418152876626 H 0.0 **** 0.06
15505 H 4.5101466161903545 34.9210325069227 35.77342402340577 H 0.0 **** 0.06
15506 C 86.0736984767455 90.43957223335525 13.309373821255946 C 0.0 **** -0.24
15507 H 85.15449065009514 91.02554570453515 13.335900882077993 H 0.0 **** 0.06
15508 H 86.73827351467833 90.76963107112218 14.107262723573342 H 0.0 **** 0.06
15509 H 86.5639017293935 90.57769529329977 12.345945396546199 H 0.0 **** 0.06
15510 H 85.83433434354961 89.38437010933762 13.447156090686718 H 0.0 **** 0.06
15511 C 11.567773207892998 20.050550271221866 90.66979190046047 C 0.0 **** -0.24
15512 H 11.60230199183215 18.967180117562492 90.55539157380866 H 0.0 **** 0.06
15513 H 11.685357138784298 20.52318284943152 89.6942545716015 H 0.0 **** 0.06
15514 H 12.374153059959326 20.372731411174186 91.3291790854168 H 0.0 **** 0.06
15515 H 10.60915634312937 20.34006829956273 91.1005872134171 H 0.0 **** 0.06
15516 C 85.91874864122227 18.70821405851303 100.23724619953674 C 0.0 **** -0.24
15517 H 85.80894394163738 18.334810387598427 101.2560230501391 H 0.0 **** 0.06
15518 H 84.93250098680082 18.904048035449627 99.81470357064956 H 0.0 **** 0.06
15519 H 86.43262730021948 17.961875631610933 99.63166282026788 H 0.0 **** 0.06
15520 H 86.49958510402914 19.629826174023755 100.24922993280524 H 0.0 **** 0.06
15521 C 32.60479260972579 76.68961604882031 2.6116415672138658 C 0.0 **** -0.24
15522 H 31.576486534015316 76.328255927327 2.584144577827601 H 0.0 **** 0.06
15523 H 32.68115053256233 77.61012792450717 2.0341072889901 H 0.0 **** 0.06
15524 H 33.26528115569809 75.935568359737 2.183867659503221 H 0.0 **** 0.06
15525 H 32.89375564445578 76.88234822374517 3.6441536310468337 H 0.0 **** 0.06
15526 C 58.26452705726026 11.923717814591537 106.76501941749103 C 0.0 **** -0.24
15527 H 57.40790556657995 12.597963871181353 106.77426436215444 H 0.0 **** 0.06
15528 H 58.61931531481883 11.77445695182254 107.78467477182176 H 0.0 **** 0.06
15529 H 59.06226056711461 12.358556568825431 106.16233118209604 H 0.0 **** 0.06
15530 H 57.96700616506964 10.96542646780529 106.33864913985829 H 0.0 **** 0.06
15531 C 92.20923849213438 97.24387075668847 111.18790676131368 C 0.0 **** -0.24
15532 H 91.83428730306866 98.12050254258656 110.65849297222229 H 0.0 **** 0.06
15533 H 93.24650490065062 97.41293673026382 111.4809866107368 H 0.0 **** 0.06
15534 H 92.15380111195907 96.3730519463081 110.53432364269611 H 0.0 **** 0.06
15535 H 91.60427719269683 97.07042401037131 112.07729844201339 H 0.0 **** 0.06
15536 C 16.576077240542816 77.98355573901333 72.64912261653268 C 0.0 **** -0.24
15537 H 17.591468888556278 78.37916858020546 72.61801195297801 H 0.0 **** 0.06
15538 H 16.352958598695523 77.48384788665626 71.70640648264319 H 0.0 **** 0.06
15539 H 15.871934979578668 78.80139394324931 72.80232809906977 H 0.0 **** 0.06
15540 H 16.488952350400382 77.27072631852184 73.46796810260139 H 0.0 **** 0.06
15541 C 101.48736656068385 11.95776209629011 17.736037068884993 C 0.0 **** -0.24
15542 H 102.46323537942365 11.69112775746251 18.14245652680191 H 0.0 **** 0.06
15543 H 100.70784979322553 11.666207663434221 18.44090604425579 H 0.0 **** 0.06
15544 H 101.33451362144032 11.44051612375246 16.789388723150108 H 0.0 **** 0.06
15545 H 101.44471400161623 13.035485454363013 17.57161133164306 H 0.0 **** 0.06
15546 C 55.75866374650815 28.62023645067717 108.96499038156895 C 0.0 **** -0.24
15547 H 55.384818567508574 29.622450664047676 109.17488328386682 H 0.0 **** 0.06
15548 H 55.78926520808491 28.462809275610766 107.88625831136662 H 0.0 **** 0.06
15549 H 55.09726088337047 27.88296557327891 109.42154657199623 H 0.0 **** 0.06
15550 H 56.762063453428084 28.512419912267205 109.37667737532493 H 0.0 **** 0.06
15551 C 68.39877266595519 111.6763570127803 43.89439132020655 C 0.0 **** -0.24
15552 H 67.77888510123927 112.17150061592093 44.64117959750067 H 0.0 **** 0.06
15553 H 68.11911000980243 112.02691697175806 42.89983754672761 H 0.0 **** 0.06
15554 H 68.24963533290003 110.59857338559382 43.955309683064286 H 0.0 **** 0.06
15555 H 69.44691597532318 111.90931613827499 44.08027348319898 H 0.0 **** 0.06
15556 C 48.850635405102665 68.59529856395324 24.685803043135877 C 0.0 **** -0.24
15557 H 49.8928082652562 68.9126216944189 24.680394145992636 H 0.0 **** 0.06
15558 H 48.335441508726724 69.02355233714493 23.825727726294815 H 0.0 **** 0.06
15559 H 48.37088943708435 68.93574253997971 25.604060818547225 H 0.0 **** 0.06
15560 H 48.80217330402316 67.50722603181157 24.632499978494536 H 0.0 **** 0.06
15561 C 17.272327040395453 24.482461146709454 5.276014727979515 C 0.0 **** -0.24
15562 H 17.018361119660227 23.94738051493556 6.19109756726408 H 0.0 **** 0.06
15563 H 17.065235766926747 23.847721935768845 4.414097132300931 H 0.0 **** 0.06
15564 H 18.3312675355331 24.74179577105457 5.289512503683316 H 0.0 **** 0.06
15565 H 16.675258191659424 25.391790452912176 5.209377238994936 H 0.0 **** 0.06
15566 C 113.70791711903877 109.42665588162731 88.1770791984452 C 0.0 **** -0.24
15567 H 112.79349009960507 108.99995009024178 88.58914346523929 H 0.0 **** 0.06
15568 H 113.5091195401626 110.43912663966586 87.82515864315766 H 0.0 **** 0.06
15569 H 114.05053104031717 108.81266973318856 87.34408262694475 H 0.0 **** 0.06
15570 H 114.4769774076938 109.45423080848673 88.94884629387667 H 0.0 **** 0.06
15571 C 62.47337055121156 6.1724084316557395 116.68641942359567 C 0.0 **** -0.24
15572 H 62.80367257393871 6.408231897030774 117.69813798474004 H 0.0 **** 0.06
15573 H 63.28800707127084 5.69756784678242 116.1394236827059 H 0.0 **** 0.06
15574 H 62.17863667106968 7.089777030172328 116.17757532189317 H 0.0 **** 0.06
15575 H 61.62137125800112 5.492701091376006 116.73252601821697 H 0.0 **** 0.06
15576 C 38.592155939485934 113.07079382059999 90.62806851758882 C 0.0 **** -0.24
15577 H 38.33570900877086 114.11281450033673 90.44090453569459 H 0.0 **** 0.06
15578 H 39.37778906353566 113.01981501815752 91.3822040165922 H 0.0 **** 0.06
15579 H 38.94373616507434 112.61076326696784 89.70464943917244 H 0.0 **** 0.06
15580 H 37.71082776907082 112.5388067269252 90.98583231740741 H 0.0 **** 0.06
15581 C 29.17684639128433 61.356753050367786 0.038571460258189916 C 0.0 **** -0.24
15582 H 28.478238636165372 60.817984733624456 -0.6016632480593262 H 0.0 **** 0.06
15583 H 29.992630786250373 60.694206137999146 0.3252400739940562 H 0.0 **** 0.06
15584 H 28.656962980865927 61.70200475601007 0.931654887723063 H 0.0 **** 0.06
15585 H 29.576959234673154 62.21482669233731 -0.5027435892899152 H 0.0 **** 0.06
15586 C 2.952705911851183 12.685257157048511 21.409502949513893 C 0.0 **** -0.24
15587 H 3.799195640745097 12.516503048619654 22.074748564363233 H 0.0 **** 0.06
15588 H 2.8330823175889464 13.754166208587606 21.237950918654576 H 0.0 **** 0.06
15589 H 2.0474027636218466 12.285807938655807 21.866029037024873 H 0.0 **** 0.06
15590 H 3.1332239523839007 12.181783755053743 20.45918331758861 H 0.0 **** 0.06
15591 C 97.2477561114298 55.01777993883752 44.206289940707705 C 0.0 **** -0.24
15592 H 96.28594931769223 55.074534651683734 44.715267464121126 H 0.0 **** 0.06
15593 H 98.03489707242903 55.36509682552017 44.875984417744434 H 0.0 **** 0.06
15594 H 97.22495568329381 55.64592086629216 43.315909308240606 H 0.0 **** 0.06
15595 H 97.44568549264966 53.98468108705825 43.91799603096237 H 0.0 **** 0.06
15596 C 55.38966639798152 18.031835703731304 65.91387319510122 C 0.0 **** -0.24
15597 H 54.73960934555774 18.319055507786743 65.08715727840007 H 0.0 **** 0.06
15598 H 55.42228737643946 18.838297065346808 66.6472452576173 H 0.0 **** 0.06
15599 H 56.394521754339955 17.841584325537923 65.53764233693013 H 0.0 **** 0.06
15600 H 54.99996693526207 17.128037748342848 66.3842637391906 H 0.0 **** 0.06
15601 C 44.620130131760135 16.044272319215622 57.3957095998565 C 0.0 **** -0.24
15602 H 44.04550031769685 15.58869374517883 56.58874469470635 H 0.0 **** 0.06
15603 H 44.21646082621271 17.033835430723002 57.61417610818967 H 0.0 **** 0.06
15604 H 45.66305650832126 16.135268637299646 57.091894157915874 H 0.0 **** 0.06
15605 H 44.554431847508226 15.420596560232923 58.28624862177645 H 0.0 **** 0.06
15606 C 36.94627372335714 56.69808657175694 74.18797051772728 C 0.0 **** -0.24
15607 H 37.608380343222564 55.9350776278575 73.77675909274143 H 0.0 **** 0.06
15608 H 36.37029452150719 57.151813791542786 73.38113399912831 H 0.0 **** 0.06
15609 H 37.54155663466284 57.46385303243712 74.6855009829182 H 0.0 **** 0.06
15610 H 36.267470001916905 56.23989877709807 74.9073452657808 H 0.0 **** 0.06
15611 C 57.73521178384683 113.18688610936294 61.62313396034014 C 0.0 **** -0.24
15612 H 58.42875662635259 113.9131645982946 62.0487990508629 H 0.0 **** 0.06
15613 H 56.71476465203873 113.55864311426438 61.72202288551145 H 0.0 **** 0.06
15614 H 57.83088135565526 112.24021902186863 62.15357363215884 H 0.0 **** 0.06
15615 H 57.96780031690914 113.03835775604585 60.568450834513555 H 0.0 **** 0.06
15616 C 51.25169120474396 13.081307543169146 110.28762814161817 C 0.0 **** -0.24
15617 H 51.63055983043449 12.067963934651573 110.1519708300824 H 0.0 **** 0.06
15618 H 50.363365575052455 13.22160591143816 109.67060253752274 H 0.0 **** 0.06
15619 H 52.01682353581859 13.79831450645952 109.99179028412182 H 0.0 **** 0.06
15620 H 50.99388167003832 13.235621483230261 111.3345765262342 H 0.0 **** 0.06
15621 C 9.290840163491964 7.436576384247939 4.256082678098721 C 0.0 **** -0.24
15622 H 9.719612645638335 6.7423951856983955 3.5321370361125872 H 0.0 **** 0.06
15623 H 9.49773194226674 7.081189210408933 5.265902642740926 H 0.0 **** 0.06
15624 H 8.212947142128598 7.497159048359574 4.105706660981539 H 0.0 **** 0.06
15625 H 9.733157509356488 8.422572565282799 4.1191506628146755 H 0.0 **** 0.06
15626 C 96.27896736248465 16.796214431249837 68.62364815598107 C 0.0 **** -0.24
15627 H 96.49753900146416 15.809286987197765 68.21384414936222 H 0.0 **** 0.06
15628 H 96.16510087247175 17.510653184318244 67.80797524641585 H 0.0 **** 0.06
15629 H 97.09858303684126 17.110644264380596 69.26981191168653 H 0.0 **** 0.06
15630 H 95.35595397893056 16.753082037484432 69.20159317406092 H 0.0 **** 0.06
15631 C 32.0278772491929 8.459081168575139 110.14683194456573 C 0.0 **** -0.24
15632 H 31.656980461913093 7.882178482097743 110.99408718342609 H 0.0 **** 0.06
15633 H 32.97085964511322 8.934914934863642 110.41572223314698 H 0.0 **** 0.06
15634 H 31.297658106266425 9.224025736996595 109.88072023379802 H 0.0 **** 0.06
15635 H 32.183895467921445 7.7939936063324495 109.29703699161044 H 0.0 **** 0.06
15636 C 26.415253647798153 77.58779208880833 85.8765457247784 C 0.0 **** -0.24
15637 H 27.001728414114154 77.29819578253768 85.00567214726897 H 0.0 **** 0.06
15638 H 27.063701618864954 78.07334834613073 86.60631209860355 H 0.0 **** 0.06
15639 H 25.96624318150782 76.70064563008623 86.32258193520343 H 0.0 **** 0.06
15640 H 25.629155031631797 78.2795926720058 85.57238368956178 H 0.0 **** 0.06
15641 C 109.1794330683584 21.40753525582494 90.63869413982809 C 0.0 **** -0.24
15642 H 109.00770341986555 21.942967069559927 91.5726139899285 H 0.0 **** 0.06
15643 H 108.36498700987966 21.61652276196628 89.94543201009358 H 0.0 **** 0.06
15644 H 109.22406038056734 20.33668103844576 90.83603443385931 H 0.0 **** 0.06
15645 H 110.12228076112058 21.7360219716835 90.20101584013926 H 0.0 **** 0.06
15646 C 3.3438440282554893 102.92602522465592 51.11724884543975 C 0.0 **** -0.24
15647 H 2.2982192142376476 102.93645900182074 50.81027583579046 H 0.0 **** 0.06
15648 H 3.4332368604575834 103.35684513041792 52.11446632216693 H 0.0 **** 0.06
15649 H 3.9352645053027544 103.51243522260435 50.414098291658256 H 0.0 **** 0.06
15650 H 3.707767175151986 101.89852645834992 51.130583513564396 H 0.0 **** 0.06
15651 C 41.58545283929286 84.4751877099136 82.95242552172809 C 0.0 **** -0.24
15652 H 41.93090205059558 84.40811723084235 83.98412022937924 H 0.0 **** 0.06
15653 H 41.413207866427065 85.52150606282208 82.69507499458231 H 0.0 **** 0.06
15654 H 40.65662767811793 83.91651299335277 82.84375692103254 H 0.0 **** 0.06
15655 H 42.341496942543024 84.05802472817004 82.28823063125176 H 0.0 **** 0.06
15656 C 38.208301113638385 79.54940923945816 27.143813705603222 C 0.0 **** -0.24
15657 H 38.77803137645569 79.09673953278565 27.95415994023105 H 0.0 **** 0.06
15658 H 38.857410934781825 79.694057835759 26.27985257937266 H 0.0 **** 0.06
15659 H 37.817177457204195 80.51378013380594 27.468845494655568 H 0.0 **** 0.06
15660 H 37.380217002437064 78.8949985206325 26.87134555754153 H 0.0 **** 0.06
15661 C 77.71120224554642 15.54270559238725 30.173910981275924 C 0.0 **** -0.24
15662 H 77.87017960123168 14.65118679391594 29.56754559519574 H 0.0 **** 0.06
15663 H 77.20334662900697 16.30150194696563 29.577802443480266 H 0.0 **** 0.06
15664 H 78.67227157056138 15.928506841868938 30.51232146303579 H 0.0 **** 0.06
15665 H 77.09637915756161 15.288616401107845 31.03820254575561 H 0.0 **** 0.06
15666 C 103.51901920852 43.22780581378822 13.205894160507171 C 0.0 **** -0.24
15667 H 104.57419930103379 43.399848248280534 12.995131491558098 H 0.0 **** 0.06
15668 H 103.12149359506299 42.499584164114026 12.498843105970892 H 0.0 **** 0.06
15669 H 102.97213354533204 44.16637059063555 13.108899954465429 H 0.0 **** 0.06
15670 H 103.40943324462441 42.84802410821095 14.221608358044932 H 0.0 **** 0.06
15671 C 72.35430019783499 4.611211039670975 68.34563316254787 C 0.0 **** -0.24
15672 H 72.8084210740684 5.174053655529978 67.52963191620316 H 0.0 **** 0.06
15673 H 73.09224495806458 3.9311907461336286 68.77055017536298 H 0.0 **** 0.06
15674 H 71.50861465401695 4.039629867947461 67.96549582649592 H 0.0 **** 0.06
15675 H 72.01044693170235 5.302289304014282 69.1153593118128 H 0.0 **** 0.06
15676 C 38.78585432035774 62.643386658573945 110.43790259213444 C 0.0 **** -0.24
15677 H 39.34188709891518 62.688266697405965 109.5006592998794 H 0.0 **** 0.06
15678 H 37.94360863336158 63.334068519466456 110.3939895719065 H 0.0 **** 0.06
15679 H 39.44163016356546 62.92172547321434 111.26322504443897 H 0.0 **** 0.06
15680 H 38.41767262538963 61.62904119063299 110.59236000576374 H 0.0 **** 0.06
15681 C 57.517299230294924 118.24956441306918 31.58138172115855 C 0.0 **** -0.24
15682 H 56.83245784832786 119.0255586344879 31.92249868921448 H 0.0 **** 0.06
15683 H 58.5301277453228 118.65104230518367 31.540132406671916 H 0.0 **** 0.06
15684 H 57.218953487176094 117.9120052476062 30.58855584054305 H 0.0 **** 0.06
15685 H 57.486547718733306 117.40895161755036 32.27486716794556 H 0.0 **** 0.06
15686 C 26.867809803180137 4.802407419460948 15.516460363846878 C 0.0 **** -0.24
15687 H 27.502251659170327 5.617972771760165 15.167382522035776 H 0.0 **** 0.06
15688 H 27.036642789675113 3.921283055957076 14.896161291720702 H 0.0 **** 0.06
15689 H 25.82222654463044 5.10008336598527 15.448136451004505 H 0.0 **** 0.06
15690 H 27.11320458170553 4.569867997601889 16.552088344346256 H 0.0 **** 0.06
15691 C 85.43802878044079 46.31101269569774 118.28195390205042 C 0.0 **** -0.24
15692 H 84.43679635497534 46.73330548016867 118.19931628509956 H 0.0 **** 0.06
15693 H 85.57032141035077 45.88133522666578 119.27513139206756 H 0.0 **** 0.06
15694 H 86.17806920370629 47.09677389716404 118.12511268368547 H 0.0 **** 0.06
15695 H 85.56848770806457 45.534506972647364 117.52851653045502 H 0.0 **** 0.06
15696 C 8.158716203876395 41.68461760291781 0.5680261383135985 C 0.0 **** -0.24
15697 H 7.61312308067906 40.74463208392868 0.6520853401783455 H 0.0 **** 0.06
15698 H 8.170541363853374 42.00517023419886 -0.4737942665533694 H 0.0 **** 0.06
15699 H 9.181606540292051 41.54323001784496 0.9171428581574759 H 0.0 **** 0.06
15700 H 7.667839146574863 42.44423999019624 1.1773677352408356 H 0.0 **** 0.06
15701 C 40.9121606524123 116.58423757578686 20.117801161022157 C 0.0 **** -0.24
15702 H 41.390000893000774 116.04652037474249 20.93825995525168 H 0.0 **** 0.06
15703 H 40.38321990556676 117.45188336078559 20.51356891203025 H 0.0 **** 0.06
15704 H 40.20531332026087 115.92437590854198 19.614603379335676 H 0.0 **** 0.06
15705 H 41.672106492801504 116.91280354982594 19.40866344233106 H 0.0 **** 0.06
15706 C 9.294974587099261 107.22448822859948 3.3440432065232333 C 0.0 **** -0.24
15707 H 9.19691614652794 108.14513938005572 2.7692314628413666 H 0.0 **** 0.06
15708 H 8.494835408777874 107.17127786965207 4.081935806618343 H 0.0 **** 0.06
15709 H 10.259477267292823 107.21404800450176 3.851318405428584 H 0.0 **** 0.06
15710 H 9.228095208383593 106.36860465870205 2.671837079146778 H 0.0 **** 0.06
15711 C 65.40743768476685 71.15865916292756 68.87168842262196 C 0.0 **** -0.24
15712 H 64.78173746125682 70.7071509044207 69.6418800342069 H 0.0 **** 0.06
15713 H 65.79764781267215 70.37886234368091 68.2175572784835 H 0.0 **** 0.06
15714 H 66.23716003515224 71.68700945529343 69.34219709410871 H 0.0 **** 0.06
15715 H 64.81388750106089 71.86138747474706 68.2874610437367 H 0.0 **** 0.06
15716 C 100.3118313779791 44.81157900429119 79.54721407148014 C 0.0 **** -0.24
15717 H 100.03263924703447 45.721557027592695 79.01611396907612 H 0.0 **** 0.06
15718 H 101.0005341271123 45.05964956259734 80.3554393790638 H 0.0 **** 0.06
15719 H 100.79651208475084 44.12248443500772 78.85514334319242 H 0.0 **** 0.06
15720 H 99.4195153145007 44.34344510357869 79.9612589814023 H 0.0 **** 0.06
15721 C 73.33060097809471 106.58876935816119 22.120073886427377 C 0.0 **** -0.24
15722 H 73.88276691950739 106.66617475189884 23.056725237133435 H 0.0 **** 0.06
15723 H 73.98348104547256 106.85614221160958 21.288673264139646 H 0.0 **** 0.06
15724 H 72.47708596184637 107.26658098802875 22.14463208468146 H 0.0 **** 0.06
15725 H 72.97700591609015 105.56532978637722 21.99039885863857 H 0.0 **** 0.06
15726 C 31.894530415206518 38.65142985474739 49.62593185072282 C 0.0 **** -0.24
15727 H 32.588513866238834 38.1711897421994 50.31545918821885 H 0.0 **** 0.06
15728 H 30.877703161038795 38.55595206410405 50.00793963532183 H 0.0 **** 0.06
15729 H 31.962210608453276 38.17231057173231 48.648914088206055 H 0.0 **** 0.06
15730 H 32.14920035727926 39.707136623669044 49.53142777824411 H 0.0 **** 0.06
15731 C 31.482307345429305 36.93455166671524 91.2673579630102 C 0.0 **** -0.24
15732 H 32.41181466412897 36.81391429232403 90.71154117615939 H 0.0 **** 0.06
15733 H 31.511332466477924 37.87141858706758 91.82576338777389 H 0.0 **** 0.06
15734 H 31.362638894340762 36.10161014656515 91.96005807551165 H 0.0 **** 0.06
15735 H 30.643014630408267 36.952003996104395 90.5715514033233 H 0.0 **** 0.06
15736 C 0.3042641132730779 54.113400056722014 57.853908940494875 C 0.0 **** -0.24
15737 H -0.26477980581655913 53.34450682443651 57.331346232895555 H 0.0 **** 0.06
15738 H 1.3669114156992492 53.87266147772473 57.80804735240088 H 0.0 **** 0.06
15739 H -0.0128137468017826 54.156418165658835 58.89554496172423 H 0.0 **** 0.06
15740 H 0.12992429877438383 55.07955615248962 57.38058074086638 H 0.0 **** 0.06
15741 C 38.91797098575229 30.3489166738337 47.45467864156183 C 0.0 **** -0.24
15742 H 38.84457035659896 29.262508491945923 47.497259657849156 H 0.0 **** 0.06
15743 H 39.95985478374433 30.63754451177322 47.31328651355341 H 0.0 **** 0.06
15744 H 38.54561206006519 30.774833771341967 48.38662609386154 H 0.0 **** 0.06
15745 H 38.32085684464339 30.720735653068978 46.62140738987517 H 0.0 **** 0.06
15746 C 71.60829688699545 47.26103020084105 74.38810657538079 C 0.0 **** -0.24
15747 H 71.36323953431685 46.486085632159416 75.11564728509808 H 0.0 **** 0.06
15748 H 70.84839291310956 48.04209514701108 74.42226947321302 H 0.0 **** 0.06
15749 H 71.63807213293745 46.82507112191553 73.39001858912525 H 0.0 **** 0.06
15750 H 72.58117982421246 47.689570023500096 74.62795643485924 H 0.0 **** 0.06
15751 C 72.92657270606321 96.34159092992871 92.2961908231249 C 0.0 **** -0.24
15752 H 72.66955703576349 96.58461019111084 93.3271724667037 H 0.0 **** 0.06
15753 H 72.97012428640835 97.2575450999037 91.70744490870453 H 0.0 **** 0.06
15754 H 72.16945868376246 95.6769567821002 91.87961262022009 H 0.0 **** 0.06
15755 H 73.89801360113734 95.84684732337828 92.27022967358738 H 0.0 **** 0.06
15756 C 70.57969803141398 53.80430047316435 75.1801533333938 C 0.0 **** -0.24
15757 H 70.87828141895397 53.19331050941858 76.03297095228285 H 0.0 **** 0.06
15758 H 69.49574098926888 53.77268501674463 75.07298465993225 H 0.0 **** 0.06
15759 H 71.04620043329533 53.416692011644436 74.27530932955659 H 0.0 **** 0.06
15760 H 70.89919359008434 54.83398593309739 75.34142957063506 H 0.0 **** 0.06
15761 C 3.2170735800492594 51.629220659067784 16.641966254521947 C 0.0 **** -0.24
15762 H 3.572154643859747 52.65663498422131 16.72731765346802 H 0.0 **** 0.06
15763 H 2.1373362781854723 51.62991754470545 16.490792590346956 H 0.0 **** 0.06
15764 H 3.4556416830864833 51.085351675094785 17.557002029090256 H 0.0 **** 0.06
15765 H 3.703093721182668 51.146017924938235 15.794969766412095 H 0.0 **** 0.06
15766 C 85.9093505434187 63.648837237975506 101.35065694857286 C 0.0 **** -0.24
15767 H 86.85253554172527 63.37915745068408 100.87447368815654 H 0.0 **** 0.06
15768 H 85.28889114706453 62.75839927126979 101.45574729290496 H 0.0 **** 0.06
15769 H 85.39007616691873 64.38419012990988 100.73619718051538 H 0.0 **** 0.06
15770 H 86.10790643659118 64.07240639897148 102.33547334124088 H 0.0 **** 0.06
15771 C 59.21289734347624 113.28858905846317 99.84972784733375 C 0.0 **** -0.24
15772 H 59.44333262932628 112.28088983569397 99.50389345339428 H 0.0 **** 0.06
15773 H 58.7031534036291 113.23377271072691 100.8120541436835 H 0.0 **** 0.06
15774 H 58.56646505006063 113.78282270407415 99.1237546895569 H 0.0 **** 0.06
15775 H 60.13692893225206 113.85511953172727 99.95910488376964 H 0.0 **** 0.06
15776 C 18.18984296868365 15.44483202934515 34.39852168241884 C 0.0 **** -0.24
15777 H 18.68777862253441 14.741865715659657 33.731188200104725 H 0.0 **** 0.06
15778 H 17.72005355617219 16.233894468417134 33.81069263500133 H 0.0 **** 0.06
15779 H 18.923129565320266 15.884647125010389 35.07565468928511 H 0.0 **** 0.06
15780 H 17.43008212221676 14.920588572181003 34.977201865994424 H 0.0 **** 0.06
15781 C 108.81166542393728 57.83563395445901 69.29710147619835 C 0.0 **** -0.24
15782 H 109.33022669474302 57.48882553816202 68.40326329086673 H 0.0 **** 0.06
15783 H 109.50096794728908 58.41297887942693 69.91494333346316 H 0.0 **** 0.06
15784 H 108.44899891949888 56.977048433458776 69.86228771153492 H 0.0 **** 0.06
15785 H 107.9694278082388 58.4631937891167 69.00795109008726 H 0.0 **** 0.06
15786 C 1.554986727024243 49.93799094651919 31.222451677230595 C 0.0 **** -0.24
15787 H 0.842083656624709 50.05085450726722 32.03895064905225 H 0.0 **** 0.06
15788 H 1.1540397780943863 49.2421827799449 30.483751295410514 H 0.0 **** 0.06
15789 H 2.496157960469418 49.55151214885029 31.61261879059265 H 0.0 **** 0.06
15790 H 1.7259548260238944 50.90632805837612 30.753540556682594 H 0.0 **** 0.06
15791 C 8.648566536565866 39.709618617717936 92.85682875760688 C 0.0 **** -0.24
15792 H 8.648285708183536 39.85943332691315 91.77737055174171 H 0.0 **** 0.06
15793 H 9.512887321738333 39.10860900695067 93.13901413099936 H 0.0 **** 0.06
15794 H 7.734990538049871 39.19475860696373 93.15286353386051 H 0.0 **** 0.06
15795 H 8.699615221016842 40.67731340409969 93.35791509744831 H 0.0 **** 0.06
15796 C 102.65991294890352 45.38446297281956 3.3604227731697005 C 0.0 **** -0.24
15797 H 103.4324884229471 45.909014213393036 3.9234127853333174 H 0.0 **** 0.06
15798 H 102.17656635390355 46.07970678848641 2.6738787553100245 H 0.0 **** 0.06
15799 H 101.91859581136524 44.980883220296185 4.0500682258670935 H 0.0 **** 0.06
15800 H 103.11178321341552 44.57057860665464 2.795052131344466 H 0.0 **** 0.06
15801 C 72.98616946677456 103.12529757655071 25.542675761039334 C 0.0 **** -0.24
15802 H 73.77074526168857 103.55305014273208 26.16725895373719 H 0.0 **** 0.06
15803 H 72.67438659863444 102.16600093993972 25.957624029396527 H 0.0 **** 0.06
15804 H 73.36559491118174 102.9784572803201 24.532402176260575 H 0.0 **** 0.06
15805 H 72.13402704483883 103.80448396251646 25.516129243317835 H 0.0 **** 0.06
15806 C 36.272961767180476 30.331830972421045 97.33407550611065 C 0.0 **** -0.24
15807 H 35.94663608699534 30.711747750055963 98.30230139531545 H 0.0 **** 0.06
15808 H 36.7296137174734 31.139887061959627 96.76258804293298 H 0.0 **** 0.06
15809 H 35.4128583937765 29.941440067907166 96.78827626304556 H 0.0 **** 0.06
15810 H 37.000849936033944 29.534896575059406 97.48324954897896 H 0.0 **** 0.06
15811 C 74.66953539216826 113.64219763946234 82.96632253064618 C 0.0 **** -0.24
15812 H 73.74159955056479 113.93308382183726 83.458730770339 H 0.0 **** 0.06
15813 H 75.50633592985568 113.80068581654817 83.64644525223437 H 0.0 **** 0.06
15814 H 74.80966291218832 114.24506062309132 82.06977303464896 H 0.0 **** 0.06
15815 H 74.6189004822682 112.58826937890252 82.69100642733363 H 0.0 **** 0.06
15816 C 86.6562838825071 82.23257225147574 11.414411858493281 C 0.0 **** -0.24
15817 H 87.14771497865061 83.14057120513075 11.764263201721121 H 0.0 **** 0.06
15818 H 87.09766475004409 81.36756244971619 11.909612375861343 H 0.0 **** 0.06
15819 H 86.78724610161123 82.14069893608854 10.336204660647184 H 0.0 **** 0.06
15820 H 85.592509699722 82.28145641496715 11.64756719574342 H 0.0 **** 0.06
15821 C 57.56054397771012 57.9264370423545 38.42993121571172 C 0.0 **** -0.24
15822 H 57.3849720724019 58.23436658609476 37.39949566081424 H 0.0 **** 0.06
15823 H 57.465649323622266 56.84271035979227 38.50723018002094 H 0.0 **** 0.06
15824 H 56.827919497346876 58.403595259400866 39.08144945972654 H 0.0 **** 0.06
15825 H 58.56467076285332 58.22596728892116 38.73191410135408 H 0.0 **** 0.06
15826 C 93.87058383186047 21.480767729449752 10.123632189655666 C 0.0 **** -0.24
15827 H 94.51037446186666 22.339216692340273 10.323589156497007 H 0.0 **** 0.06
15828 H 93.88379797735232 21.25924552968658 9.056412963576122 H 0.0 **** 0.06
15829 H 92.8512164509525 21.705526065370492 10.436093952084548 H 0.0 **** 0.06
15830 H 94.23785242752155 20.616245526745473 10.678071367308064 H 0.0 **** 0.06
15831 C 1.5598591643091453 109.70032608747306 34.577432045801956 C 0.0 **** -0.24
15832 H 0.7551289304766158 110.31088505421738 34.16630476137068 H 0.0 **** 0.06
15833 H 1.970171469935977 110.18927016304323 35.46113792845468 H 0.0 **** 0.06
15834 H 2.343842449370186 109.58191085385931 33.83004221437563 H 0.0 **** 0.06
15835 H 1.167918595822556 108.72106636094267 34.85211284775607 H 0.0 **** 0.06
15836 C 84.21187257991059 50.660835140408835 76.8618007711627 C 0.0 **** -0.24
15837 H 83.80879088858092 50.88963596661705 77.84902211363644 H 0.0 **** 0.06
15838 H 84.71826809653837 49.69614276040005 76.89110523523982 H 0.0 **** 0.06
15839 H 84.9216605640122 51.435729187015625 76.57101589339345 H 0.0 **** 0.06
15840 H 83.39818489006115 50.62308959677728 76.13807904376338 H 0.0 **** 0.06
15841 C 96.12981895932467 58.573348435906325 51.630158337335715 C 0.0 **** -0.24
15842 H 95.3167510886002 59.15831446131193 51.199352116146436 H 0.0 **** 0.06
15843 H 96.82707040155069 58.28656481293578 50.843599954776394 H 0.0 **** 0.06
15844 H 95.72284510918024 57.67796724853784 52.10103352230025 H 0.0 **** 0.06
15845 H 96.64999593834412 59.171845509108635 52.377866648335605 H 0.0 **** 0.06
15846 C 82.98487996455322 44.60500647011711 85.76363466498861 C 0.0 **** -0.24
15847 H 83.28753074868314 44.11418949841016 86.68829500091414 H 0.0 **** 0.06
15848 H 82.676929041844 43.852233203033315 85.03696947992896 H 0.0 **** 0.06
15849 H 83.82353532545835 45.175043717999124 85.36364678890811 H 0.0 **** 0.06
15850 H 82.15152862002685 45.277146828938264 85.96569501169006 H 0.0 **** 0.06
15851 C 13.642873147739095 69.9197352027964 99.5615706867323 C 0.0 **** -0.24
15852 H 13.840843109565228 70.85010883363333 99.02841365021368 H 0.0 **** 0.06
15853 H 12.961852313728087 69.30264360020033 98.97434736960898 H 0.0 **** 0.06
15854 H 13.190562311770435 70.14482024872783 100.52684791889328 H 0.0 **** 0.06
15855 H 14.579363763614822 69.38257032566605 99.71416765246104 H 0.0 **** 0.06
15856 C 75.86249643553748 23.633606892272383 47.849718889368035 C 0.0 **** -0.24
15857 H 76.82071250900964 23.271461351995583 48.22123347776255 H 0.0 **** 0.06
15858 H 76.01280097057622 24.568485425165306 47.31006508561484 H 0.0 **** 0.06
15859 H 75.18877863817374 23.80286820065342 48.689218419742986 H 0.0 **** 0.06
15860 H 75.42892059822145 22.891285019511344 47.180199097307195 H 0.0 **** 0.06
15861 C 15.56866218079091 13.711888654013393 44.31303313695994 C 0.0 **** -0.24
15862 H 15.065678794297071 13.36476370230983 45.21603623600849 H 0.0 **** 0.06
15863 H 15.054739252047256 14.591325241122064 43.92647135065881 H 0.0 **** 0.06
15864 H 15.552887899610852 12.921298702003071 43.56305030466134 H 0.0 **** 0.06
15865 H 16.60147663901236 13.968007788490496 44.548653247519475 H 0.0 **** 0.06
15866 C 53.14302378184624 76.76569700119853 107.1195023686492 C 0.0 **** -0.24
15867 H 52.990835004220116 75.82027951105599 107.64080357841263 H 0.0 **** 0.06
15868 H 52.62204844176901 77.56107777401147 107.65252084257403 H 0.0 **** 0.06
15869 H 52.74917702899336 76.68825930165443 106.10646206152794 H 0.0 **** 0.06
15870 H 54.20850539145792 76.99056898541212 107.08019516511465 H 0.0 **** 0.06
15871 C 26.65959046940668 2.5159070534452894 48.42682298916596 C 0.0 **** -0.24
15872 H 25.92755597450453 3.3083069043238424 48.26669922302649 H 0.0 **** 0.06
15873 H 27.508760361765155 2.665781564982808 47.75960208796481 H 0.0 **** 0.06
15874 H 26.1987907726795 1.5496759149608579 48.21869643327884 H 0.0 **** 0.06
15875 H 27.001110191437675 2.5404768342097555 49.462135132238 H 0.0 **** 0.06
15876 C 104.37610838898516 25.21405647082031 72.63788710747525 C 0.0 **** -0.24
15877 H 104.33943030672629 26.241982483071666 72.99825273500431 H 0.0 **** 0.06
15878 H 105.0736875374042 25.147316070162674 71.80280169896042 H 0.0 **** 0.06
15879 H 103.38228131192685 24.910260021186446 72.3072103781887 H 0.0 **** 0.06
15880 H 104.70800278764045 24.558506915337688 73.44254070659537 H 0.0 **** 0.06
15881 C 86.70111921736725 35.097590651712494 34.121667706751 C 0.0 **** -0.24
15882 H 87.0905535086003 36.10823020378933 34.24354956077525 H 0.0 **** 0.06
15883 H 86.49205950353715 34.913905121960624 33.06759548172688 H 0.0 **** 0.06
15884 H 85.78313535954933 34.99119458605787 34.69946790531961 H 0.0 **** 0.06
15885 H 87.43956462886692 34.378562212152076 34.47745850583169 H 0.0 **** 0.06
15886 C 108.75349203100083 82.50883992259548 115.23851255227737 C 0.0 **** -0.24
15887 H 109.171909890383 83.01184318656746 116.10929592255944 H 0.0 **** 0.06
15888 H 107.67636934789385 82.3961329408618 115.36597035657368 H 0.0 **** 0.06
15889 H 109.21159397190988 81.52510425270353 115.13139406995316 H 0.0 **** 0.06
15890 H 108.95307853207558 83.10193110830778 114.34542873372537 H 0.0 **** 0.06
15891 C 92.74463585072101 71.9121285045182 101.37642364406955 C 0.0 **** -0.24
15892 H 92.26423070954618 71.93701030814557 102.35463751515798 H 0.0 **** 0.06
15893 H 92.17631861157531 72.52597745548627 100.67663250930462 H 0.0 **** 0.06
15894 H 92.78089275441278 70.88472160150732 101.01439594830853 H 0.0 **** 0.06
15895 H 93.75922126489218 72.30270536152639 101.46140474203412 H 0.0 **** 0.06
15896 C 92.24812222632019 31.40779601036246 103.14899871234564 C 0.0 **** -0.24
15897 H 92.55762086802557 31.922357919074017 104.05958934370233 H 0.0 **** 0.06
15898 H 92.95084112876043 31.635864960808732 102.34749994462373 H 0.0 **** 0.06
15899 H 91.2502250846567 31.741731375908245 102.8648789636452 H 0.0 **** 0.06
15900 H 92.23427583981106 30.332825209477676 103.32631360422431 H 0.0 **** 0.06
15901 C 90.3997824905866 60.61974397738919 14.456803037184613 C 0.0 **** -0.24
15902 H 90.72455757270774 60.54267682869724 13.41966644568788 H 0.0 **** 0.06
15903 H 91.10888839828849 60.09765236555651 15.09952284627093 H 0.0 **** 0.06
15904 H 89.4131138365068 60.169581194089574 14.56265652894296 H 0.0 **** 0.06
15905 H 90.35219319874122 61.67067227870501 14.74484058061999 H 0.0 **** 0.06
15906 C 18.683068579255746 64.3950936761972 21.20700971556225 C 0.0 **** -0.24
15907 H 18.947029097077774 65.33806634845416 21.686203806598574 H 0.0 **** 0.06
15908 H 18.385604029965634 63.67282192246909 21.966871474466664 H 0.0 **** 0.06
15909 H 19.54340449117285 64.01273794589684 20.657988071545173 H 0.0 **** 0.06
15910 H 17.85491552180696 64.55854639770016 20.516826161976997 H 0.0 **** 0.06
15911 C 83.77562889119997 15.538341344911004 28.748321235037515 C 0.0 **** -0.24
15912 H 82.97466592228005 15.172320222119879 28.106825820802563 H 0.0 **** 0.06
15913 H 84.38818989122589 14.698334373917817 29.07769025427475 H 0.0 **** 0.06
15914 H 83.34627298942382 16.037699203397096 29.616707548991677 H 0.0 **** 0.06
15915 H 84.39339379876179 16.243299143170248 28.191801151624354 H 0.0 **** 0.06
15916 C 99.2400411622418 88.22623643409554 15.27854721472687 C 0.0 **** -0.24
15917 H 98.55487059441467 88.69876156881168 15.98154066498887 H 0.0 **** 0.06
15918 H 98.66947761256256 87.7031328735469 14.511332478068994 H 0.0 **** 0.06
15919 H 99.87338997858171 87.51614583226086 15.809165828937125 H 0.0 **** 0.06
15920 H 99.86320370173797 88.9894073067735 14.811083518970463 H 0.0 **** 0.06
15921 C 32.64754653481723 18.370994514134964 51.04703849999905 C 0.0 **** -0.24
15922 H 32.063101454000154 18.58789495599717 50.15271767707122 H 0.0 **** 0.06
15923 H 33.3621799481081 19.175494303171547 51.218402718822006 H 0.0 **** 0.06
15924 H 33.18216208051455 17.431112144142332 50.911116122772114 H 0.0 **** 0.06
15925 H 31.97927230257978 18.28874465976105 51.905268182112195 H 0.0 **** 0.06
15926 C 81.01775134745205 82.95798447503125 43.41234478235748 C 0.0 **** -0.24
15927 H 81.22209764912566 81.97656752410569 42.98488495891513 H 0.0 **** 0.06
15928 H 81.93715271735584 83.37280104957352 43.8250418572286 H 0.0 **** 0.06
15929 H 80.27426760449353 82.86219924818909 44.203271231948264 H 0.0 **** 0.06
15930 H 80.63730625911836 83.62028907221213 42.63478081840023 H 0.0 **** 0.06
15931 C 63.538548100633 59.76994858266435 55.3125339145746 C 0.0 **** -0.24
15932 H 62.573283443063765 59.628132580945255 55.79831052534371 H 0.0 **** 0.06
15933 H 63.68134336602218 58.9977616638516 54.55724563418332 H 0.0 **** 0.06
15934 H 64.33233420758464 59.70246989126675 56.05692954271683 H 0.0 **** 0.06
15935 H 63.566822173301226 60.75187362212612 54.839803142041944 H 0.0 **** 0.06
15936 C 24.424447586859714 60.169554856583495 14.31181254023133 C 0.0 **** -0.24
15937 H 24.649953937348414 61.08905395882852 14.853141396124045 H 0.0 **** 0.06
15938 H 25.346964217027022 59.61461178706383 14.138365478360129 H 0.0 **** 0.06
15939 H 23.96294605284274 60.41499843051957 13.355763741402512 H 0.0 **** 0.06
15940 H 23.738932804085977 59.56024469380008 14.900694675878327 H 0.0 **** 0.06
15941 C 59.932954221464115 90.8301623390692 3.1237108152871613 C 0.0 **** -0.24
15942 H 60.151643507262406 90.44188934035574 4.118855372773442 H 0.0 **** 0.06
15943 H 59.75940059114254 89.99845104499337 2.4408755266126256 H 0.0 **** 0.06
15944 H 60.778222664002726 91.41995477724242 2.770443703472578 H 0.0 **** 0.06
15945 H 59.043273233711886 91.45818086698591 3.1666062572245153 H 0.0 **** 0.06
15946 C 109.14691617292414 82.44345871501338 75.26963812998656 C 0.0 **** -0.24
15947 H 109.50679806101289 82.16130506584847 74.28025301355697 H 0.0 **** 0.06
15948 H 108.19368745195862 82.96429763757368 75.17422615319094 H 0.0 **** 0.06
15949 H 109.87376008453515 83.10112035915648 75.74633368973852 H 0.0 **** 0.06
15950 H 109.01374285267383 81.54809379851014 75.87575695137724 H 0.0 **** 0.06
15951 C 41.4534789831622 74.07917835980916 99.01610929042295 C 0.0 **** -0.24
15952 H 40.5629195193067 74.58693952146584 99.38714168979868 H 0.0 **** 0.06
15953 H 42.3353417969511 74.67331269144617 99.2517888032468 H 0.0 **** 0.06
15954 H 41.37573196227852 73.95519088855517 97.93533727101737 H 0.0 **** 0.06
15955 H 41.53665199658026 73.10057089058449 99.48849178242884 H 0.0 **** 0.06
15956 C 64.40049362760655 59.06907026452592 81.45737925478954 C 0.0 **** -0.24
15957 H 63.72410664737915 59.669390100094034 82.06580863877673 H 0.0 **** 0.06
15958 H 64.97383010730863 59.72278701414791 80.79905308893547 H 0.0 **** 0.06
15959 H 63.82184616382953 58.366713097289505 80.85687269426182 H 0.0 **** 0.06
15960 H 65.0813614372804 58.51891084906612 82.10605031918612 H 0.0 **** 0.06
15961 C 0.4338063188116994 45.03019806315726 72.33377668558649 C 0.0 **** -0.24
15962 H 0.39466192264488775 45.90751557951543 71.68788406438216 H 0.0 **** 0.06
15963 H 1.4457181965587012 44.62606631995121 72.33757249771807 H 0.0 **** 0.06
15964 H -0.25825879657564954 44.274546166507264 71.96094065297893 H 0.0 **** 0.06
15965 H 0.1518423048702786 45.312703724485104 73.34807171943069 H 0.0 **** 0.06
15966 C 7.830525448843147 61.12635123034707 14.64662241410332 C 0.0 **** -0.24
15967 H 7.012755094024527 61.68971356063142 14.196194668515346 H 0.0 **** 0.06
15968 H 8.195880229746848 60.38530064760039 13.935262786005211 H 0.0 **** 0.06
15969 H 7.472594967582069 60.62243176418886 15.544701776024311 H 0.0 **** 0.06
15970 H 8.638813445731927 61.807092235300274 14.910214252301813 H 0.0 **** 0.06
15971 C 80.2163241263807 108.5840661876646 100.53203144069417 C 0.0 **** -0.24
15972 H 79.2816359280944 108.02420358424305 100.55907566243971 H 0.0 **** 0.06
15973 H 80.34387814362253 109.124063821177 101.47018073116666 H 0.0 **** 0.06
15974 H 80.18963688441255 109.29496472257719 99.70487138299077 H 0.0 **** 0.06
15975 H 81.04936010140446 107.89475089920586 100.39243883624374 H 0.0 **** 0.06
15976 C 15.550702325040394 58.00296427535841 94.30975650645371 C 0.0 **** -0.24
15977 H 16.22363135228216 58.66708172032364 93.76780624754832 H 0.0 **** 0.06
15978 H 16.13348658353274 57.25443592552955 94.84762122256558 H 0.0 **** 0.06
15979 H 14.884391670853677 57.50673922122505 93.60484068225989 H 0.0 **** 0.06
15980 H 14.960833449373286 58.5840437833898 95.01952334011813 H 0.0 **** 0.06
15981 C 34.05921556002119 26.81106322605884 97.19993190060791 C 0.0 **** -0.24
15982 H 33.325810676124945 26.454950324458956 97.92326891463989 H 0.0 **** 0.06
15983 H 33.603805073136414 27.57237321520828 96.56556210700921 H 0.0 **** 0.06
15984 H 34.395221764061574 25.97717717647602 96.58399892594812 H 0.0 **** 0.06
15985 H 34.91166172044541 27.23846624130919 97.72869065792321 H 0.0 **** 0.06
15986 C 110.56706878604285 18.2605592191901 60.90084756384754 C 0.0 **** -0.24
15987 H 111.44143895893515 18.279523228406163 60.25065397042055 H 0.0 **** 0.06
15988 H 109.68736416377556 17.986114075130274 60.31830122533764 H 0.0 **** 0.06
15989 H 110.41963742630554 19.24874738834228 61.33859955954977 H 0.0 **** 0.06
15990 H 110.72013582509383 17.530129238563205 61.694984243125695 H 0.0 **** 0.06
15991 C 15.338471233442696 35.102457931330235 85.10257878371175 C 0.0 **** -0.24
15992 H 14.258257925052998 35.12371249317931 85.25189090404479 H 0.0 **** 0.06
15993 H 15.58468376632272 35.59998598641437 84.16390852219214 H 0.0 **** 0.06
15994 H 15.678932908750404 34.06798332584572 85.06574582506403 H 0.0 **** 0.06
15995 H 15.828778476823622 35.6176562238858 85.92821130508759 H 0.0 **** 0.06
15996 C 69.29944250159713 82.58158557705175 25.985032727232067 C 0.0 **** -0.24
15997 H 69.41749426319632 81.57245335715419 26.379533047343557 H 0.0 **** 0.06
15998 H 69.1316657369662 82.5330132291648 24.908580535476972 H 0.0 **** 0.06
15999 H 70.2023974821202 83.15898154866082 26.18666813731471 H 0.0 **** 0.06
16000 H 68.44678682377224 83.06153721458045 26.464107062578023 H 0.0 **** 0.06
16001 C 30.102358990639885 85.16161266075133 11.640155294864257 C 0.0 **** -0.24
16002 H 30.74676358663993 84.31609359694087 11.400257867491234 H 0.0 **** 0.06
16003 H 30.67514108409884 85.90909469713336 12.19047060345352 H 0.0 **** 0.06
16004 H 29.267718502133846 84.81971391960607 12.251853791744594 H 0.0 **** 0.06
16005 H 29.721968241808298 85.60095318276001 10.718039603641614 H 0.0 **** 0.06
16006 C 33.5307910308361 81.75670574972634 83.4730993005715 C 0.0 **** -0.24
16007 H 33.1498511831839 80.9567973439128 82.83960357240323 H 0.0 **** 0.06
16008 H 34.417918035634784 82.19369263456036 83.01240110047496 H 0.0 **** 0.06
16009 H 33.79140571624845 81.35354237783554 84.45163230655902 H 0.0 **** 0.06
16010 H 32.76568429362135 82.52455753680528 83.5888313148917 H 0.0 **** 0.06
16011 C 76.67000178242606 104.35398618840247 100.08716770266591 C 0.0 **** -0.24
16012 H 77.72350882786262 104.09080559044602 99.9908844466043 H 0.0 **** 0.06
16013 H 76.06541475531819 103.64158499565522 99.52492691962397 H 0.0 **** 0.06
16014 H 76.50937814597799 105.35775906509468 99.69416565233973 H 0.0 **** 0.06
16015 H 76.38332210569283 104.32434012565551 101.13817456200138 H 0.0 **** 0.06
16016 C 82.32104833863224 110.34495151725055 51.770713910821826 C 0.0 **** -0.24
16017 H 81.97787488488035 111.14788278083842 52.42233870779694 H 0.0 **** 0.06
16018 H 82.75552331984741 109.54795273406324 52.37445145421944 H 0.0 **** 0.06
16019 H 83.07377726809364 110.73130433495936 51.082889602502036 H 0.0 **** 0.06
16020 H 81.47826732191464 109.95241489642711 51.202562810111004 H 0.0 **** 0.06
16021 C 22.27885551770069 105.60985735275892 38.927050107855564 C 0.0 **** -0.24
16022 H 21.857445759727398 106.6154041648584 38.899048763194685 H 0.0 **** 0.06
16023 H 22.16562632413178 105.19762055278696 39.930380869660155 H 0.0 **** 0.06
16024 H 23.33726030088087 105.65250292392 38.66864097271622 H 0.0 **** 0.06
16025 H 21.754533401467768 104.97616672770425 38.21226549839929 H 0.0 **** 0.06
16026 C 11.630545923814395 117.11353730624214 12.785670349839535 C 0.0 **** -0.24
16027 H 10.609464210009122 116.9296750248393 12.449690537501482 H 0.0 **** 0.06
16028 H 11.84548187978828 118.18043907564025 12.724574320675401 H 0.0 **** 0.06
16029 H 12.325773405379977 116.56424102159565 12.150432647408934 H 0.0 **** 0.06
16030 H 11.738629211209428 116.77897855509626 13.817437773898831 H 0.0 **** 0.06
16031 C 80.88762622096979 2.699895413638785 52.92657956268559 C 0.0 **** -0.24
16032 H 81.34268119512569 1.9258691784058328 52.308528649454956 H 0.0 **** 0.06
16033 H 80.1079181585173 2.2569373845868768 53.54623276608078 H 0.0 **** 0.06
16034 H 80.45267803349799 3.4668149000009407 52.2857666897751 H 0.0 **** 0.06
16035 H 81.64954042205699 3.147715079355521 53.565008805688194 H 0.0 **** 0.06
16036 C 116.92408613624477 74.66660500769308 101.43140957853117 C 0.0 **** -0.24
16037 H 116.78167364714778 73.82897378185504 102.11458833492196 H 0.0 **** 0.06
16038 H 117.584290333612 75.40213472174938 101.89218185429016 H 0.0 **** 0.06
16039 H 115.9599061613448 75.12782409482622 101.2167528319255 H 0.0 **** 0.06
16040 H 117.37081018190953 74.30723632765728 100.50431176553835 H 0.0 **** 0.06
16041 C 30.16124571911312 106.4931308917667 23.403018525804065 C 0.0 **** -0.24
16042 H 30.83015134686412 106.78157564822308 24.21385972642809 H 0.0 **** 0.06
16043 H 29.68277690973155 107.38319608434387 22.99315735287893 H 0.0 **** 0.06
16044 H 29.399136436376985 105.8146485950935 23.784587266551576 H 0.0 **** 0.06
16045 H 30.733757833021237 105.99420044262533 22.620771834930757 H 0.0 **** 0.06
16046 C 47.525291336609804 83.17174502885459 29.72675524738679 C 0.0 **** -0.24
16047 H 48.30344359252241 83.63700860003789 29.12120468868784 H 0.0 **** 0.06
16048 H 47.93303953721768 82.91191495888216 30.703976484211694 H 0.0 **** 0.06
16049 H 47.1693998722527 82.26881550786268 29.230072102815143 H 0.0 **** 0.06
16050 H 46.69649845906696 83.86885155166988 29.852375557940263 H 0.0 **** 0.06
16051 C 23.51807869637574 57.429318821605676 105.1185042033014 C 0.0 **** -0.24
16052 H 23.528418437533503 56.91881738687866 106.08204455232882 H 0.0 **** 0.06
16053 H 24.47157340937281 57.27479384646432 104.6147221483887 H 0.0 **** 0.06
16054 H 23.35653143382362 58.496531958096966 105.27472600457568 H 0.0 **** 0.06
16055 H 22.712244100475488 57.02701581732768 104.50370868466194 H 0.0 **** 0.06
16056 C 33.43594367044011 110.26812769826691 90.43369554783283 C 0.0 **** -0.24
16057 H 32.53289700247623 110.73147913034197 90.82939828599018 H 0.0 **** 0.06
16058 H 34.287543793132016 110.92674761083339 90.60526369961644 H 0.0 **** 0.06
16059 H 33.31802705993891 110.09792520205474 89.36330665498377 H 0.0 **** 0.06
16060 H 33.606748429435385 109.31540710901783 90.93668648683098 H 0.0 **** 0.06
16061 C 90.75861573408852 15.829124393895313 91.83774012677264 C 0.0 **** -0.24
16062 H 90.51393759344666 15.606596247300985 92.87659210361869 H 0.0 **** 0.06
16063 H 89.9961408354961 16.486525046959713 91.41867087036414 H 0.0 **** 0.06
16064 H 90.79430448567516 14.901704818936139 91.26593786371268 H 0.0 **** 0.06
16065 H 91.72957535397782 16.322198559591754 91.7913305464314 H 0.0 **** 0.06
16066 C 88.88234813295796 50.5729992638485 109.5329422503071 C 0.0 **** -0.24
16067 H 88.8674633016854 50.96493321529853 108.51530927849367 H 0.0 **** 0.06
16068 H 88.73251066049085 51.39039978190111 110.2385389589042 H 0.0 **** 0.06
16069 H 89.84377496390135 50.09833062607094 109.72514686517175 H 0.0 **** 0.06
16070 H 88.08409418033531 49.83970147846422 109.65084304430184 H 0.0 **** 0.06
16071 C 13.866726092048765 65.06526120021846 86.51016550101548 C 0.0 **** -0.24
16072 H 13.348570061418314 65.99477119321912 86.27110868962885 H 0.0 **** 0.06
16073 H 13.135753912803665 64.29098528717654 86.74028498161152 H 0.0 **** 0.06
16074 H 14.513811283598585 65.22321879582117 87.37332930838022 H 0.0 **** 0.06
16075 H 14.469419676968982 64.75612997006823 85.6562399258558 H 0.0 **** 0.06
16076 C 93.26947773808729 82.03191726797283 10.166509861468995 C 0.0 **** -0.24
16077 H 94.02243805356653 82.32152580725798 10.90015233720402 H 0.0 **** 0.06
16078 H 92.40146690170505 81.62061392874307 10.682171906578247 H 0.0 **** 0.06
16079 H 93.68529000314004 81.27960075478717 9.496935712360184 H 0.0 **** 0.06
16080 H 92.96899807813739 82.9067158497727 9.589660663725041 H 0.0 **** 0.06
16081 C 28.781445137689765 114.2655889962132 118.66178782869929 C 0.0 **** -0.24
16082 H 28.3814985575069 114.89775854049745 117.86963701558656 H 0.0 **** 0.06
16083 H 28.28044878102758 114.49882228388913 119.60144599420343 H 0.0 **** 0.06
16084 H 29.851465363404472 114.44610592921077 118.76588364077435 H 0.0 **** 0.06
16085 H 28.612280659680614 113.21796543199376 118.40988526181923 H 0.0 **** 0.06
16086 C 11.96878611382246 29.367604045860347 80.94400279406102 C 0.0 **** -0.24
16087 H 11.279462202986508 28.812473377393133 80.3070364587035 H 0.0 **** 0.06
16088 H 12.968403771484077 29.33503290200116 80.51089516865002 H 0.0 **** 0.06
16089 H 11.986407705869823 28.918824328019582 81.9371864704471 H 0.0 **** 0.06
16090 H 11.637745365518299 30.403864093598173 81.01884769798093 H 0.0 **** 0.06
16091 C 32.09569636963266 79.40403580503357 66.4907099768146 C 0.0 **** -0.24
16092 H 32.38529426427618 79.67351270475811 65.47462145849448 H 0.0 **** 0.06
16093 H 31.091716076945943 79.77536937198136 66.69278531184003 H 0.0 **** 0.06
16094 H 32.797544266926536 79.84814165872325 67.19732171505814 H 0.0 **** 0.06
16095 H 32.11144980490582 78.3193115883121 66.59684561800162 H 0.0 **** 0.06
16096 C 77.28466307395786 2.6863099843679947 34.23387279265124 C 0.0 **** -0.24
16097 H 76.79367881676103 1.7855663433345512 33.86484982634834 H 0.0 **** 0.06
16098 H 77.19366956008275 2.7302143176029574 35.31910601623976 H 0.0 **** 0.06
16099 H 76.81261826655953 3.5638258564536045 33.79229024225968 H 0.0 **** 0.06
16100 H 78.33965775380386 2.6624433496577353 33.95830744386889 H 0.0 **** 0.06
16101 C 106.7011394662992 52.70630674609045 14.880561215908529 C 0.0 **** -0.24
16102 H 107.14949472830543 53.620278648296505 15.269565671113952 H 0.0 **** 0.06
16103 H 107.46938707900662 52.10147021749961 14.397670945146729 H 0.0 **** 0.06
16104 H 105.93016230957244 52.9605147310684 14.154146725689031 H 0.0 **** 0.06
16105 H 106.25636875151247 52.142452950742396 15.70076942171002 H 0.0 **** 0.06
16106 C 86.2682776437911 103.05140532232747 87.65803953030297 C 0.0 **** -0.24
16107 H 86.96608058201758 103.80632779523398 88.01967285290036 H 0.0 **** 0.06
16108 H 86.71077105535966 102.52187010444285 86.81449072660081 H 0.0 **** 0.06
16109 H 85.34350431847926 103.53312739324312 87.33987332343739 H 0.0 **** 0.06
16110 H 86.05190813114712 102.34422800979931 88.45864932259602 H 0.0 **** 0.06
16111 C 51.33639261370729 101.2314881335997 48.982974347044774 C 0.0 **** -0.24
16112 H 52.297946384189004 101.40477563603127 48.49921987601792 H 0.0 **** 0.06
16113 H 51.06179316145679 100.18181535082786 48.87753823963152 H 0.0 **** 0.06
16114 H 50.575905768859286 101.85578915548334 48.51396735392066 H 0.0 **** 0.06
16115 H 51.412081241874745 101.4831438177693 50.04076223217339 H 0.0 **** 0.06
16116 C 27.917940372325603 83.27411950814809 8.774574474106409 C 0.0 **** -0.24
16117 H 28.499621380224497 84.1944340496853 8.838621307395513 H 0.0 **** 0.06
16118 H 27.075310033984522 83.42520870816887 8.100339576345853 H 0.0 **** 0.06
16119 H 27.54884165732139 83.00792119022162 9.764766946579236 H 0.0 **** 0.06
16120 H 28.549342776871583 82.47159016537051 8.39450056993132 H 0.0 **** 0.06
16121 C 26.90063082248497 27.242981061275586 9.514157315292834 C 0.0 **** -0.24
16122 H 27.306415997147724 26.708608887734783 8.654706684732503 H 0.0 **** 0.06
16123 H 26.445780338487282 26.53086882697781 10.202780418003158 H 0.0 **** 0.06
16124 H 26.14817339079758 27.95436012180997 9.175880606272244 H 0.0 **** 0.06
16125 H 27.705012912722452 27.777541812827053 10.021133572184567 H 0.0 **** 0.06
16126 C 98.02695714550396 18.620005808693477 23.83072479019495 C 0.0 **** -0.24
16127 H 98.99912766232507 18.519206300180315 23.348548997526336 H 0.0 **** 0.06
16128 H 97.35104348000073 19.168761600957694 23.17555205253774 H 0.0 **** 0.06
16129 H 98.14240031637328 19.161308266365353 24.770180026073774 H 0.0 **** 0.06
16130 H 97.61752991400564 17.629898491382335 24.030382983639356 H 0.0 **** 0.06
16131 C 113.64861300667594 85.5118650181854 78.29466621082219 C 0.0 **** -0.24
16132 H 114.20066221515368 86.35345705681473 78.71279187043507 H 0.0 **** 0.06
16133 H 113.82369946887779 84.62476225054067 78.9031199586313 H 0.0 **** 0.06
16134 H 113.98832915076513 85.32633237271637 77.27543111461429 H 0.0 **** 0.06
16135 H 112.5831921414985 85.74358964301291 78.28662300268203 H 0.0 **** 0.06
16136 C 98.32680750673188 27.72840613115386 76.2231386915501 C 0.0 **** -0.24
16137 H 97.58466589552995 27.989140463231593 76.97835062519931 H 0.0 **** 0.06
16138 H 98.5297934167973 26.658511834755245 76.26747230014877 H 0.0 **** 0.06
16139 H 99.24677787598904 28.281619873017576 76.41382870925179 H 0.0 **** 0.06
16140 H 97.9461853086541 27.986001982171445 75.23540157269855 H 0.0 **** 0.06
16141 C 44.74010010864414 61.46632846228539 27.467521421882623 C 0.0 **** -0.24
16142 H 44.87876134019283 62.122649007479595 28.326534204908 H 0.0 **** 0.06
16143 H 44.93988284002358 60.435976066107685 27.761805929636353 H 0.0 **** 0.06
16144 H 45.427440535339265 61.75779957916032 26.672960328437355 H 0.0 **** 0.06
16145 H 43.71431571902111 61.5488891963941 27.10878522454874 H 0.0 **** 0.06
16146 C 18.48291842303047 77.28662170755948 33.853447467296036 C 0.0 **** -0.24
16147 H 17.71122155295103 77.84149203472245 33.321185926495616 H 0.0 **** 0.06
16148 H 18.51911248104119 76.26352286257574 33.47904351480912 H 0.0 **** 0.06
16149 H 18.251585326264802 77.2753606080625 34.91915607184569 H 0.0 **** 0.06
16150 H 19.449062071929347 77.7656579781102 33.69648174518403 H 0.0 **** 0.06
16151 C 9.005903581715614 30.798507851227214 15.659841914605238 C 0.0 **** -0.24
16152 H 8.367392954560785 30.12377588064234 16.229912530024308 H 0.0 **** 0.06
16153 H 8.452655885673408 31.183726946563183 14.803037483467477 H 0.0 **** 0.06
16154 H 9.88585717051697 30.258009896496162 15.312096074066488 H 0.0 **** 0.06
16155 H 9.316185292108145 31.628079171160607 16.29589875873873 H 0.0 **** 0.06
16156 C 27.97641920877291 79.19071972402443 83.01879454599975 C 0.0 **** -0.24
16157 H 27.040839163884606 78.68942851828592 82.7696827066543 H 0.0 **** 0.06
16158 H 28.407205365018065 79.6243576706415 82.11512142288291 H 0.0 **** 0.06
16159 H 28.672754087200055 78.4677633600561 83.442518917321 H 0.0 **** 0.06
16160 H 27.78371724998209 79.9801749347427 83.74534117412034 H 0.0 **** 0.06
16161 C 76.82087147964577 31.29376197107156 77.47067474967113 C 0.0 **** -0.24
16162 H 77.90569226220879 31.274019270873424 77.56717642401543 H 0.0 **** 0.06
16163 H 76.44771511844843 30.27633378696423 77.34959689908769 H 0.0 **** 0.06
16164 H 76.54345242928764 31.88910836790896 76.60020765288655 H 0.0 **** 0.06
16165 H 76.38483600797272 31.73655023752606 78.36708441247185 H 0.0 **** 0.06
16166 C 82.91035905252693 97.04784565060504 39.64057666973105 C 0.0 **** -0.24
16167 H 82.04549597439578 97.7038696454187 39.73530205290933 H 0.0 **** 0.06
16168 H 83.5954290896195 97.45520760273939 38.89701036027168 H 0.0 **** 0.06
16169 H 82.58128843372239 96.05641482243436 39.329004813562335 H 0.0 **** 0.06
16170 H 83.41778373047777 96.97686505025223 40.602396554787674 H 0.0 **** 0.06
16171 C 65.56012808480972 6.545519704883381 90.32063335864831 C 0.0 **** -0.24
16172 H 66.11199787469036 6.0285947456163225 89.53497443447523 H 0.0 **** 0.06
16173 H 66.00353507418521 6.313548879193203 91.28833903452337 H 0.0 **** 0.06
16174 H 64.52017370520608 6.216879715378477 90.3085376647395 H 0.0 **** 0.06
16175 H 65.60371857556564 7.620177455590305 90.14880189311859 H 0.0 **** 0.06
16176 C 6.515803524666126 86.48424796366453 41.45698313857852 C 0.0 **** -0.24
16177 H 6.0402128036813565 86.90681107418646 42.34270573634376 H 0.0 **** 0.06
16178 H 5.76174530911419 86.00046925952614 40.83586401824007 H 0.0 **** 0.06
16179 H 7.262782673499032 85.75079068954716 41.760133484056325 H 0.0 **** 0.06
16180 H 6.9978593564707126 87.28017397496052 40.88945911228532 H 0.0 **** 0.06
16181 C 48.52024449203256 101.38965479736973 107.07123604119383 C 0.0 **** -0.24
16182 H 48.743043251354464 100.99879792597349 108.06310603146352 H 0.0 **** 0.06
16183 H 49.37092997153951 101.212309902985 106.4114446274969 H 0.0 **** 0.06
16184 H 48.32776812756177 102.46022794326512 107.13656229112041 H 0.0 **** 0.06
16185 H 47.63965903067151 100.88586818087177 106.67215223702038 H 0.0 **** 0.06
16186 C 74.28160143646858 69.73674880346863 56.88226279759832 C 0.0 **** -0.24
16187 H 73.23947566786026 69.94596605556478 57.12330341888586 H 0.0 **** 0.06
16188 H 74.83961611039578 70.67169732957171 56.840580711250745 H 0.0 **** 0.06
16189 H 74.33650764082353 69.23616686955756 55.91559760134563 H 0.0 **** 0.06
16190 H 74.70865790733231 69.0914352478257 57.650196245086825 H 0.0 **** 0.06
16191 C 91.63397658435767 111.47640691411786 105.1944409373917 C 0.0 **** -0.24
16192 H 92.37278419616038 110.94655382157794 104.59427637265526 H 0.0 **** 0.06
16193 H 91.8883475198538 111.38389976661999 106.25030902813998 H 0.0 **** 0.06
16194 H 90.64771697282063 111.04513501411508 105.01931192616118 H 0.0 **** 0.06
16195 H 91.6254178012963 112.52957213445785 104.91356136113802 H 0.0 **** 0.06
16196 C 66.07940698847506 99.41500339720483 98.97095236097937 C 0.0 **** -0.24
16197 H 66.70212006498008 98.52802564867488 99.09473672174411 H 0.0 **** 0.06
16198 H 65.3723666269374 99.25029396702666 98.15751807623408 H 0.0 **** 0.06
16199 H 66.7104121155958 100.27184732656644 98.73711156745168 H 0.0 **** 0.06
16200 H 65.53320153932711 99.6065678099747 99.89427961670009 H 0.0 **** 0.06
16201 C 54.78422148251209 36.11545089832821 98.32319449461878 C 0.0 **** -0.24
16202 H 54.94493665657158 35.24551972223419 97.68499698875138 H 0.0 **** 0.06
16203 H 54.337144372323316 35.79721321935117 99.26463029620413 H 0.0 **** 0.06
16204 H 54.114834023168335 36.81430276657661 97.82113265546255 H 0.0 **** 0.06
16205 H 55.73956915181136 36.6025467945682 98.5190337135904 H 0.0 **** 0.06
16206 C 21.816777193553207 58.16264816673498 20.820078147458275 C 0.0 **** -0.24
16207 H 22.137088695992475 57.35659717470037 20.158992690037792 H 0.0 **** 0.06
16208 H 22.61311057249128 58.90146555482005 20.9046685151651 H 0.0 **** 0.06
16209 H 21.59228744581958 57.754547122182174 21.80597748757333 H 0.0 **** 0.06
16210 H 20.92383082335914 58.63461297383924 20.410811069842282 H 0.0 **** 0.06
16211 C 31.428938951853254 58.410192526335045 72.54440273650076 C 0.0 **** -0.24
16212 H 31.686373325357437 57.75681327387003 73.37848828983451 H 0.0 **** 0.06
16213 H 31.771281466071116 59.422650518334414 72.75740264131798 H 0.0 **** 0.06
16214 H 30.347552669630943 58.41325422391872 72.40638127248863 H 0.0 **** 0.06
16215 H 31.91003771791192 58.04611320347326 71.63674598506196 H 0.0 **** 0.06
16216 C 7.745160495297142 5.6799899678809425 20.355006985694082 C 0.0 **** -0.24
16217 H 8.830510554714579 5.719368017190604 20.268317162876745 H 0.0 **** 0.06
16218 H 7.293547651326236 6.161839617587461 19.487840148232163 H 0.0 **** 0.06
16219 H 7.434844689874041 6.199945959566094 21.261084470774655 H 0.0 **** 0.06
16220 H 7.4215774195280915 4.6409481784007625 20.403407784682972 H 0.0 **** 0.06
16221 C 46.305677928561536 69.2533569140866 38.913797914389875 C 0.0 **** -0.24
16222 H 47.32890401933771 69.62482359172989 38.849389034527405 H 0.0 **** 0.06
16223 H 45.82020955152998 69.35881950047599 37.94368418061367 H 0.0 **** 0.06
16224 H 45.75688816272211 69.82785537503685 39.659428403766356 H 0.0 **** 0.06
16225 H 46.318876751895715 68.20289860972832 39.202085325994744 H 0.0 **** 0.06
16226 C 57.75083157371819 71.61497472524357 55.54734945714773 C 0.0 **** -0.24
16227 H 57.71119811405097 70.87538272532473 56.34797328731395 H 0.0 **** 0.06
16228 H 58.7357102687817 71.59093281809251 55.079384076992255 H 0.0 **** 0.06
16229 H 57.56859204653523 72.60661681977024 55.96016081176856 H 0.0 **** 0.06
16230 H 56.98939355121374 71.385376235931 54.80288645581112 H 0.0 **** 0.06
16231 C 33.84846466304239 74.89543892803354 26.748067255754194 C 0.0 **** -0.24
16232 H 33.197701711595755 74.51446772858853 27.535625597051308 H 0.0 **** 0.06
16233 H 34.802568383850385 74.36786865551667 26.780476512928004 H 0.0 **** 0.06
16234 H 34.017198235533186 75.96191008997201 26.900181891228698 H 0.0 **** 0.06
16235 H 33.37726941453851 74.7362978749544 25.77858508360501 H 0.0 **** 0.06
16236 C 109.7171719710372 3.7549145453795347 11.993312219282458 C 0.0 **** -0.24
16237 H 109.55331481708075 3.9638982355179735 10.936291782972845 H 0.0 **** 0.06
16238 H 109.68794410169596 2.677344534431654 12.158609661889386 H 0.0 **** 0.06
16239 H 108.93549775538838 4.234480511409629 12.58299476982053 H 0.0 **** 0.06
16240 H 110.68989669851064 4.143343919309672 12.29463726221411 H 0.0 **** 0.06
16241 C 107.95673074933833 14.900476292965038 89.01295636114861 C 0.0 **** -0.24
16242 H 107.28776864313636 14.100765031854618 88.69609340912174 H 0.0 **** 0.06
16243 H 108.62655467942676 14.527379935742353 89.78760568245548 H 0.0 **** 0.06
16244 H 107.36975499614971 15.72948969870361 89.40790419195247 H 0.0 **** 0.06
16245 H 108.54254861380952 15.24341958219006 88.15978818687961 H 0.0 **** 0.06
16246 C 79.04980511212855 4.12959685648849 14.36901408743168 C 0.0 **** -0.24
16247 H 79.83383979285347 3.976507468849718 15.110617640021019 H 0.0 **** 0.06
16248 H 79.47112126679045 4.026998149931231 13.368484312515307 H 0.0 **** 0.06
16249 H 78.62995344585994 5.129075339607283 14.48604381746793 H 0.0 **** 0.06
16250 H 78.26446694020245 3.3864431750775736 14.511664729579167 H 0.0 **** 0.06
16251 C 51.82506026749337 37.20440310648098 112.48856671714232 C 0.0 **** -0.24
16252 H 52.28708064492021 36.64717820484725 113.30386064088779 H 0.0 **** 0.06
16253 H 50.90743892712132 36.7024621941849 112.18043198462148 H 0.0 **** 0.06
16254 H 52.51477807851654 37.251717935088095 111.64574453610022 H 0.0 **** 0.06
16255 H 51.59212418730037 38.214173845542945 112.82475764071161 H 0.0 **** 0.06
16256 C 76.85990447293307 93.04832071941459 78.46709153685813 C 0.0 **** -0.24
16257 H 77.05483778659794 94.03445595709383 78.0472954163724 H 0.0 **** 0.06
16258 H 76.79087867634917 92.31753255309758 77.66105451006868 H 0.0 **** 0.06
16259 H 75.92214774808087 93.06794598200636 79.02149002745159 H 0.0 **** 0.06
16260 H 77.67394017763081 92.77295370571525 79.1382737021948 H 0.0 **** 0.06
16261 C 19.089750748602683 29.00560055273536 33.17927550683568 C 0.0 **** -0.24
16262 H 18.707085203738686 29.82505487820262 33.78858029278973 H 0.0 **** 0.06
16263 H 19.96149907672043 29.345844175268084 32.619565089973804 H 0.0 **** 0.06
16264 H 18.315460046538533 28.67850508132873 32.485442659593986 H 0.0 **** 0.06
16265 H 19.374116546319144 28.17488852956118 33.825442063406356 H 0.0 **** 0.06
16266 C 110.72499529039561 75.94456381262037 108.70371733166365 C 0.0 **** -0.24
16267 H 110.43224696611716 76.74278753764983 108.02133848077295 H 0.0 **** 0.06
16268 H 109.97941701017027 75.8507271716712 109.49353712491808 H 0.0 **** 0.06
16269 H 111.69304827096897 76.18025514229834 109.14384628196655 H 0.0 **** 0.06
16270 H 110.79401695022511 75.0045091093751 108.15495069367074 H 0.0 **** 0.06
16271 C 17.150616797278072 5.131047188785374 76.30642899760898 C 0.0 **** -0.24
16272 H 16.88234815619184 6.119935623577959 75.93487663487142 H 0.0 **** 0.06
16273 H 17.348701533595317 5.187020188041188 77.37693030257492 H 0.0 **** 0.06
16274 H 18.043750231635606 4.778808778930298 75.78859075409045 H 0.0 **** 0.06
16275 H 16.329005722126677 4.438335503567089 76.12352917293015 H 0.0 **** 0.06
16276 C 50.59837382301154 87.5306244533271 17.390510965092716 C 0.0 **** -0.24
16277 H 50.963462416285466 87.67996790086275 16.374295223332666 H 0.0 **** 0.06
16278 H 51.39976274118061 87.74330617634863 18.09914764550379 H 0.0 **** 0.06
16279 H 50.2715247358943 86.49737289008633 17.51099125572611 H 0.0 **** 0.06
16280 H 49.759629585007616 88.20143265337305 17.577401437884475 H 0.0 **** 0.06
16281 C 79.27995952510508 58.6998055138414 77.28324292402121 C 0.0 **** -0.24
16282 H 80.33771502848714 58.79940303545982 77.52917434757126 H 0.0 **** 0.06
16283 H 78.6851637491531 58.79605999202545 78.19090891953658 H 0.0 **** 0.06
16284 H 79.10190317899696 57.72271347766423 76.83317769478677 H 0.0 **** 0.06
16285 H 78.99636776645838 59.4819725052719 76.5781548765247 H 0.0 **** 0.06
16286 C 73.61572998988476 92.81682069310716 107.90323907247003 C 0.0 **** -0.24
16287 H 73.8580093935029 93.43985146860882 108.76369933486754 H 0.0 **** 0.06
16288 H 74.41916049279334 92.09842222129075 107.73719481848599 H 0.0 **** 0.06
16289 H 73.49999661414023 93.44553292823178 107.01988221791547 H 0.0 **** 0.06
16290 H 72.68423148246461 92.28279198531459 108.09397319808357 H 0.0 **** 0.06
16291 C 114.91522717844585 31.845367326168976 5.667049708561947 C 0.0 **** -0.24
16292 H 114.84779133779311 32.83208258319659 5.208767063719634 H 0.0 **** 0.06
16293 H 115.73713960993479 31.291032758507548 5.214286310270694 H 0.0 **** 0.06
16294 H 113.9818915963688 31.307092080980254 5.507848862158994 H 0.0 **** 0.06
16295 H 115.09496428636183 31.953130958843104 6.736438836115752 H 0.0 **** 0.06
16296 C 33.72215631409648 3.688243429651436 55.309589472058455 C 0.0 **** -0.24
16297 H 33.04386434511906 3.2770498632953604 56.05771076472845 H 0.0 **** 0.06
16298 H 33.99248835595927 2.909431692942121 54.59622178312603 H 0.0 **** 0.06
16299 H 34.6211890554398 4.060219959994811 55.800271771203974 H 0.0 **** 0.06
16300 H 33.22902030470186 4.5068084642610415 54.78482880371812 H 0.0 **** 0.06
16301 C 33.3133907931213 38.05896681470301 0.03805690208005785 C 0.0 **** -0.24
16302 H 33.747469378542746 37.29233719944415 -0.6044961600191385 H 0.0 **** 0.06
16303 H 32.241715087383625 37.885401244179945 0.1370809509369053 H 0.0 **** 0.06
16304 H 33.48471592396527 39.04136220200064 -0.4008696448931346 H 0.0 **** 0.06
16305 H 33.78077188784647 38.01385386956957 1.0225828801208223 H 0.0 **** 0.06
16306 C 78.65882298036206 30.336178028983795 9.29869758122075 C 0.0 **** -0.24
16307 H 77.66835702908199 29.921143393195393 9.4871519789518 H 0.0 **** 0.06
16308 H 79.41467833498592 29.574181425505458 9.492711797053914 H 0.0 **** 0.06
16309 H 78.82548016573483 31.189775407100626 9.95586763378924 H 0.0 **** 0.06
16310 H 78.72518091627347 30.659484004199953 8.259720941673265 H 0.0 **** 0.06
16311 C 21.65239484550719 95.49515832867621 16.72175204699296 C 0.0 **** -0.24
16312 H 22.32290291568839 95.70958589766974 17.553333224791373 H 0.0 **** 0.06
16313 H 20.70600990134531 95.11284012227861 17.10621008707227 H 0.0 **** 0.06
16314 H 22.108178695709626 94.74992130295499 16.06973560945852 H 0.0 **** 0.06
16315 H 21.471380740295444 96.40941742330665 16.156149893058938 H 0.0 **** 0.06
16316 C 53.94558487529311 51.02774772620617 1.6705663587463562 C 0.0 **** -0.24
16317 H 53.75897166883652 51.63893632843558 0.7883110137704676 H 0.0 **** 0.06
16318 H 53.444129894592166 51.469898321648444 2.5320751421819097 H 0.0 **** 0.06
16319 H 55.018413510208696 50.98047749082479 1.8593939468806582 H 0.0 **** 0.06
16320 H 53.56208421864153 50.021275405129465 1.5029856772068513 H 0.0 **** 0.06
16321 C 117.2784370922925 65.06497427613962 46.44741272061975 C 0.0 **** -0.24
16322 H 117.92706874646224 65.49478406796959 45.68456539127769 H 0.0 **** 0.06
16323 H 117.4853122186523 65.5366272463445 47.40834027159909 H 0.0 **** 0.06
16324 H 117.46420300638204 63.993245239844775 46.520203415012105 H 0.0 **** 0.06
16325 H 116.23653452736234 65.23529523413 46.17576699387848 H 0.0 **** 0.06
16326 C 67.90267646524634 107.37743056583201 83.00050464165611 C 0.0 **** -0.24
16327 H 68.54253460678356 108.19475971242406 82.66760044536807 H 0.0 **** 0.06
16328 H 67.72611289798078 107.46813946578288 84.07198573558082 H 0.0 **** 0.06
16329 H 68.39177549560128 106.42583685291916 82.79220410078057 H 0.0 **** 0.06
16330 H 66.95119782789948 107.42123766050511 82.46991256786333 H 0.0 **** 0.06
16331 C 4.040105692551464 58.90637512615311 16.604416582507454 C 0.0 **** -0.24
16332 H 3.7452582523036995 59.9122432428683 16.303164250751948 H 0.0 **** 0.06
16333 H 3.7427397638092543 58.73702152297517 17.639978030348683 H 0.0 **** 0.06
16334 H 5.120568307097898 58.80294761391431 16.51444577834114 H 0.0 **** 0.06
16335 H 3.5494916824604275 58.17605564286529 15.960944037633062 H 0.0 **** 0.06
16336 C 0.7304566861679405 6.057788583080992 81.56573233380868 C 0.0 **** -0.24
16337 H 0.8052826295624413 6.572487068546906 80.60767955204551 H 0.0 **** 0.06
16338 H -0.2698323170737922 6.196993715855655 81.97657226356719 H 0.0 **** 0.06
16339 H 1.467748916134326 6.468213299874407 82.25647059905006 H 0.0 **** 0.06
16340 H 0.9198638932001018 4.993862153873579 81.42276366141118 H 0.0 **** 0.06
16341 C 114.63684803288288 20.833849074603904 47.19363043228512 C 0.0 **** -0.24
16342 H 114.71197374427211 20.890586641091545 46.10746443413376 H 0.0 **** 0.06
16343 H 113.59674987260544 20.675298627211703 47.4779491318688 H 0.0 **** 0.06
16344 H 114.9963517000324 21.765179040924295 47.631676320053884 H 0.0 **** 0.06
16345 H 115.24362676287151 20.003318696936788 47.55692444770449 H 0.0 **** 0.06
16346 C 12.104039377059621 61.52859410967943 85.47163845290999 C 0.0 **** -0.24
16347 H 11.301660129085406 62.191349429641434 85.79673926078527 H 0.0 **** 0.06
16348 H 11.68697906280849 60.723002986176226 84.8663556476069 H 0.0 **** 0.06
16349 H 12.602681465781274 61.10740852797525 86.34414592907856 H 0.0 **** 0.06
16350 H 12.823528598803108 62.09312389364004 84.87948654028048 H 0.0 **** 0.06
16351 C 45.71842478021688 71.45347239128708 54.02653588190665 C 0.0 **** -0.24
16352 H 44.9294930348249 72.06067343827391 53.580561364737605 H 0.0 **** 0.06
16353 H 46.477939692165165 71.2352607588746 53.27546039968897 H 0.0 **** 0.06
16354 H 45.29275196385311 70.52104200828873 54.39634902595708 H 0.0 **** 0.06
16355 H 46.171552592350764 71.9999117728799 54.85417457386359 H 0.0 **** 0.06
16356 C 100.57761391890335 95.12568376059406 40.70059844008958 C 0.0 **** -0.24
16357 H 100.73556422457006 94.16521334067713 41.192605478439475 H 0.0 **** 0.06
16358 H 99.97334903594304 94.97964528810681 39.80560724007063 H 0.0 **** 0.06
16359 H 101.54101727315853 95.55373774638346 40.423190176156766 H 0.0 **** 0.06
16360 H 100.06226463032456 95.80209125087998 41.382326078621446 H 0.0 **** 0.06
16361 C 78.71412912791894 118.1613920629977 47.398318549462005 C 0.0 **** -0.24
16362 H 77.83826856810367 118.77220363011755 47.61845739765468 H 0.0 **** 0.06
16363 H 78.51579792131301 117.12744661913302 47.68198589748616 H 0.0 **** 0.06
16364 H 79.56855118777844 118.53499327947023 47.96224196262497 H 0.0 **** 0.06
16365 H 78.93144427028903 118.21092614944648 46.33199449373197 H 0.0 **** 0.06
16366 C 101.6736645178888 27.511177507575894 4.172661801925244 C 0.0 **** -0.24
16367 H 100.74829774422122 26.937655741396156 4.232291720533567 H 0.0 **** 0.06
16368 H 101.43818508223814 28.56595522043287 4.029343948623591 H 0.0 **** 0.06
16369 H 102.26859483258804 27.153633811367314 3.3314982819214265 H 0.0 **** 0.06
16370 H 102.23840658010036 27.386093783384354 5.096193608904798 H 0.0 **** 0.06
16371 C 69.54389723617214 4.20464058676319 76.4089587463364 C 0.0 **** -0.24
16372 H 68.88841304141388 4.5527506495490115 75.61138282056248 H 0.0 **** 0.06
16373 H 68.95490966479244 4.018151475312834 77.30733397971488 H 0.0 **** 0.06
16374 H 70.2962905697986 4.964518655325719 76.61780583050668 H 0.0 **** 0.06
16375 H 70.03562226704784 3.2829814865455944 76.09839064954761 H 0.0 **** 0.06
16376 C 53.57075634155507 5.695729838173742 24.122366695300855 C 0.0 **** -0.24
16377 H 53.776215865174436 4.858214094802937 24.78894701720617 H 0.0 **** 0.06
16378 H 52.84123338779193 6.3591143234406005 24.587262244756687 H 0.0 **** 0.06
16379 H 53.17237112053198 5.320094705372291 23.1797294119267 H 0.0 **** 0.06
16380 H 54.493237283872276 6.24577203784408 23.934488807769384 H 0.0 **** 0.06
16381 C 73.9865338651957 29.24403459692627 29.529504637922855 C 0.0 **** -0.24
16382 H 74.34594240357916 28.60098858163599 30.332686980459556 H 0.0 **** 0.06
16383 H 74.48645197053654 30.210814937146353 29.58777318539572 H 0.0 **** 0.06
16384 H 72.90985659390844 29.383588267502034 29.631986151823384 H 0.0 **** 0.06
16385 H 74.20275464176166 28.779406946234076 28.5680072468937 H 0.0 **** 0.06
16386 C 110.5404892559612 26.04236791740677 93.31324781232391 C 0.0 **** -0.24
16387 H 110.91299081980877 25.103567644251626 93.72296014235235 H 0.0 **** 0.06
16388 H 110.65681125861029 26.833532394002404 94.05486605100873 H 0.0 **** 0.06
16389 H 109.48663767964639 25.934991164367183 93.05794875072067 H 0.0 **** 0.06
16390 H 111.10641787888932 26.297772709435222 92.4174036563835 H 0.0 **** 0.06
16391 C 98.44748371720726 62.918010669235 55.102770324873745 C 0.0 **** -0.24
16392 H 98.39957438392975 61.833110956467635 55.014289697662946 H 0.0 **** 0.06
16393 H 99.41557354457697 63.269711826517465 54.74453574114 H 0.0 **** 0.06
16394 H 98.32108502741119 63.20302926275056 56.147578146782166 H 0.0 **** 0.06
16395 H 97.65370191291117 63.36619063120426 54.5046777139097 H 0.0 **** 0.06
16396 C 117.64745443428984 19.10783769293218 63.37108794785757 C 0.0 **** -0.24
16397 H 116.72407796328889 18.549786103618715 63.524521501999494 H 0.0 **** 0.06
16398 H 117.53147747530636 19.771616828138832 62.5133582290318 H 0.0 **** 0.06
16399 H 118.46542140648899 18.41245517931779 63.18385350433142 H 0.0 **** 0.06
16400 H 117.86731229154321 19.698060653298 64.26079068404815 H 0.0 **** 0.06
16401 C 88.41464435879163 30.095989476533987 38.95174879870303 C 0.0 **** -0.24
16402 H 87.6944626430627 29.54629529903059 39.55863530977885 H 0.0 **** 0.06
16403 H 89.31060441296651 30.29247920735861 39.54125959715983 H 0.0 **** 0.06
16404 H 87.97456911560766 31.0410448897253 38.633154029380606 H 0.0 **** 0.06
16405 H 88.67759088982822 29.503328600525492 38.07517945422265 H 0.0 **** 0.06
16406 C 83.28525459318911 89.62371863850095 6.180167776447718 C 0.0 **** -0.24
16407 H 82.89346744413996 90.45141444626336 5.58887930661146 H 0.0 **** 0.06
16408 H 83.15586406861172 89.84142170339851 7.239778538553054 H 0.0 **** 0.06
16409 H 84.34495957037444 89.4916268987622 5.962464569854873 H 0.0 **** 0.06
16410 H 82.74614624227405 88.70988593338609 5.92800391456953 H 0.0 **** 0.06
16411 C 85.4920899872908 54.75969712558307 59.29660882540926 C 0.0 **** -0.24
16412 H 85.18827417986859 53.71828482514463 59.4009684121034 H 0.0 **** 0.06
16413 H 86.57028913984641 54.810327927468556 59.14466580276862 H 0.0 **** 0.06
16414 H 85.22537980985078 55.307837941917136 60.200719962969025 H 0.0 **** 0.06
16415 H 84.98356838488405 55.20248837602424 58.43957363359289 H 0.0 **** 0.06
16416 C 57.388458737010986 50.20842147181986 23.29927595434424 C 0.0 **** -0.24
16417 H 57.8172423304811 50.481492890230044 22.33511196636151 H 0.0 **** 0.06
16418 H 58.191125225235616 50.03668311659172 24.017797442358713 H 0.0 **** 0.06
16419 H 56.797559138352575 49.2991392365673 23.189676491113218 H 0.0 **** 0.06
16420 H 56.74898794792009 51.01685145053045 23.653741256050083 H 0.0 **** 0.06
16421 C 25.92061409233952 23.20261170259724 21.215208796331805 C 0.0 **** -0.24
16422 H 25.351532250073035 23.753468744920298 21.964490439737183 H 0.0 **** 0.06
16423 H 25.271900113965273 22.960309556189543 20.3731040242371 H 0.0 **** 0.06
16424 H 26.304404477324795 22.28202622856374 21.65478573913969 H 0.0 **** 0.06
16425 H 26.75326500740215 23.81496492141614 20.868702558582097 H 0.0 **** 0.06
16426 C 56.1710799334242 57.110242709648446 25.102089968997376 C 0.0 **** -0.24
16427 H 55.16081017391273 57.25513940577582 24.71893784544693 H 0.0 **** 0.06
16428 H 56.14882957715252 56.393319737919455 25.923811355477326 H 0.0 **** 0.06
16429 H 56.56298196621436 58.062784522525874 25.45984478450154 H 0.0 **** 0.06
16430 H 56.810405506130415 56.73056406487012 24.304489464953406 H 0.0 **** 0.06
16431 C 91.7697281750354 77.66436347680406 2.705790603410108 C 0.0 **** -0.24
16432 H 91.03126670226604 77.9666525285856 3.447266467643473 H 0.0 **** 0.06
16433 H 91.39024576015228 76.81366153513702 2.139732414141534 H 0.0 **** 0.06
16434 H 92.69536940951338 77.38267708924963 3.2091272060378486 H 0.0 **** 0.06
16435 H 91.96403028712882 78.49561760793048 2.0278541450784076 H 0.0 **** 0.06
16436 C 16.300652860920778 107.03262342550647 33.504014465084495 C 0.0 **** -0.24
16437 H 15.22087866349544 107.04136375145808 33.65116687440447 H 0.0 **** 0.06
16438 H 16.579435010288847 106.16198992998258 32.91148739967967 H 0.0 **** 0.06
16439 H 16.798234615790648 106.9889413285128 34.47272847300431 H 0.0 **** 0.06
16440 H 16.602837559885614 107.94017988484643 32.98143217688181 H 0.0 **** 0.06
16441 C 58.529865322047044 17.603052488222346 8.36397067723857 C 0.0 **** -0.24
16442 H 59.01890073474283 18.447541190167783 8.849179648384165 H 0.0 **** 0.06
16443 H 57.62571036603157 17.947063388952074 7.861812456092991 H 0.0 **** 0.06
16444 H 58.269114153194494 16.855173940666532 9.112263417866899 H 0.0 **** 0.06
16445 H 59.2069403172689 17.163498873579613 7.631074586868792 H 0.0 **** 0.06
16446 C 81.08234098677212 5.825050515224234 79.66423161984724 C 0.0 **** -0.24
16447 H 80.01883228634392 6.03720352543921 79.77412209046196 H 0.0 **** 0.06
16448 H 81.32162176567044 4.893186568275354 80.17740402103692 H 0.0 **** 0.06
16449 H 81.6619044182853 6.639312609123266 80.09987835261705 H 0.0 **** 0.06
16450 H 81.32604570783337 5.730589391236833 78.60578809070932 H 0.0 **** 0.06
16451 C 115.57121309056532 89.93735127709692 63.81658074838125 C 0.0 **** -0.24
16452 H 115.93402577627938 90.0941608767429 64.83285301907134 H 0.0 **** 0.06
16453 H 115.38374068545232 90.90282604387724 63.346088268790844 H 0.0 **** 0.06
16454 H 114.64703037020212 89.36091601037108 63.8449919952569 H 0.0 **** 0.06
16455 H 116.32152976270464 89.39267140609499 63.243597947113294 H 0.0 **** 0.06
16456 C 56.40451676987675 56.05231609642402 18.411656681793076 C 0.0 **** -0.24
16457 H 57.18182681876971 56.7290341595255 18.765136896043657 H 0.0 **** 0.06
16458 H 55.457328276462306 56.30741867505509 18.887956230630778 H 0.0 **** 0.06
16459 H 56.67332633545749 55.02624445012614 18.66252110372463 H 0.0 **** 0.06
16460 H 56.304814101268136 56.14768895550188 17.329941827586424 H 0.0 **** 0.06
16461 C 105.52048747227809 23.232214338193444 99.52636589844622 C 0.0 **** -0.24
16462 H 106.38123400951639 22.604205585556656 99.75760389795735 H 0.0 **** 0.06
16463 H 105.50637511572504 24.090082424273504 100.19870640886973 H 0.0 **** 0.06
16464 H 104.6050584020295 22.65426591595903 99.65532651560201 H 0.0 **** 0.06
16465 H 105.59041353054457 23.578962405638293 98.49553629481676 H 0.0 **** 0.06
16466 C 110.6608009660191 90.44713296922023 20.38666384504984 C 0.0 **** -0.24
16467 H 111.15831319156123 91.31028621230843 19.94370033344802 H 0.0 **** 0.06
16468 H 111.00979405692276 90.31244639875445 21.41097482359902 H 0.0 **** 0.06
16469 H 110.89193293525916 89.55572737071029 19.803488363771578 H 0.0 **** 0.06
16470 H 109.58337749681155 90.61062961644416 20.38768980702369 H 0.0 **** 0.06
16471 C 117.15082025717604 107.89585816985604 31.0531154791762 C 0.0 **** -0.24
16472 H 117.83188506234336 108.74595186948704 31.08316480153445 H 0.0 **** 0.06
16473 H 117.65109769413806 107.01526432196843 31.455179513828625 H 0.0 **** 0.06
16474 H 116.85320359991115 107.70557045032547 30.02232576634384 H 0.0 **** 0.06
16475 H 116.26752806519318 108.11749637117634 31.651493234846157 H 0.0 **** 0.06
16476 C 45.88916821477852 2.3286792055213823 57.26428548190015 C 0.0 **** -0.24
16477 H 45.15864654889896 2.3854743004983447 58.07147009618415 H 0.0 **** 0.06
16478 H 45.47489554618619 2.790590721798594 56.367343701415884 H 0.0 **** 0.06
16479 H 46.124239510334974 1.284002418816499 57.06000508545069 H 0.0 **** 0.06
16480 H 46.79695258806743 2.8545005834027393 57.558791733257756 H 0.0 **** 0.06
16481 C 95.22554327521098 33.92788840813324 97.47825029434875 C 0.0 **** -0.24
16482 H 95.88322219307304 33.10531635396222 97.20185731865831 H 0.0 **** 0.06
16483 H 95.32443722616947 34.73344626089505 96.74984644329186 H 0.0 **** 0.06
16484 H 95.50037329139587 34.29602152811697 98.46667279171697 H 0.0 **** 0.06
16485 H 94.1932860519517 33.57782245656779 97.4950264741247 H 0.0 **** 0.06
16486 C 20.596917568669202 50.02582646770139 51.25341323522363 C 0.0 **** -0.24
16487 H 21.37165715898171 50.12567303669158 52.013805775810084 H 0.0 **** 0.06
16488 H 19.932348930336154 50.88831644851004 51.297357406914216 H 0.0 **** 0.06
16489 H 20.025331487915892 49.116348058673836 51.43488463345621 H 0.0 **** 0.06
16490 H 21.06031827154612 49.97399481909683 50.26754107705344 H 0.0 **** 0.06
16491 C 101.94309853250206 11.049027023884321 78.16015139592537 C 0.0 **** -0.24
16492 H 101.56762614760416 11.876436165722538 77.55846863863218 H 0.0 **** 0.06
16493 H 101.15581143899018 10.305668216332919 78.28731787143516 H 0.0 **** 0.06
16494 H 102.25287814529375 11.421725015809784 79.13719819554407 H 0.0 **** 0.06
16495 H 102.79633625593459 10.593237214566784 77.65774258786138 H 0.0 **** 0.06
16496 C 104.58088623050656 88.2977211939376 1.674176988931892 C 0.0 **** -0.24
16497 H 104.79406125051844 89.28937177478352 1.2753460816809756 H 0.0 **** 0.06
16498 H 104.27210536088126 88.38378032121855 2.716063153874586 H 0.0 **** 0.06
16499 H 105.4767208421149 87.68056991288904 1.6095613327855958 H 0.0 **** 0.06
16500 H 103.78058424925928 87.8379217351254 1.0945462856994101 H 0.0 **** 0.06
16501 C 6.809006605862567 47.18619719951528 81.04667322659185 C 0.0 **** -0.24
16502 H 7.2401637912013115 47.85130406822813 80.29838189972509 H 0.0 **** 0.06
16503 H 7.491394071685946 46.3565447845335 81.23214236676887 H 0.0 **** 0.06
16504 H 5.856595831950658 46.79937982097486 80.68307090189603 H 0.0 **** 0.06
16505 H 6.646699336884883 47.73818408037832 81.97261405645713 H 0.0 **** 0.06
16506 C 72.67126209952116 24.69171491690409 45.00881591716578 C 0.0 **** -0.24
16507 H 73.29757391270076 25.584185874661785 44.99260709309482 H 0.0 **** 0.06
16508 H 72.95707794955024 24.033458393741284 44.18791442255983 H 0.0 **** 0.06
16509 H 71.62635650136363 24.980624347346435 44.89577079525108 H 0.0 **** 0.06
16510 H 72.80417652394866 24.17047439970321 45.95664007086506 H 0.0 **** 0.06
16511 C 65.13924520399581 91.25054412703867 5.190895635830486 C 0.0 **** -0.24
16512 H 64.84865610182462 90.89764237886499 6.180356546584278 H 0.0 **** 0.06
16513 H 64.25401473316353 91.33750901655543 4.5613341551193685 H 0.0 **** 0.06
16514 H 65.83662560465254 90.54244105128186 4.743032717671326 H 0.0 **** 0.06
16515 H 65.62002730568696 92.2253710776842 5.28055965755749 H 0.0 **** 0.06
16516 C 61.91967337808711 61.88195345973992 103.94211459102965 C 0.0 **** -0.24
16517 H 61.62481548767204 61.92094272967398 104.99135112492775 H 0.0 **** 0.06
16518 H 61.501788936859924 60.98749548361286 103.48063862739431 H 0.0 **** 0.06
16519 H 63.00716407539801 61.85329279232894 103.8724501753426 H 0.0 **** 0.06
16520 H 61.54597928650841 62.76693484418206 103.42687556250277 H 0.0 **** 0.06
16521 C 77.92734693384472 101.25272642711002 54.141665810785696 C 0.0 **** -0.24
16522 H 77.53691191435226 102.26956716455419 54.18321073941922 H 0.0 **** 0.06
16523 H 77.70866911694378 100.74096708116684 55.078918155035126 H 0.0 **** 0.06
16524 H 79.00682981285388 101.28459085727968 53.987993928864626 H 0.0 **** 0.06
16525 H 77.45825509471692 100.71759345508465 53.31682337706275 H 0.0 **** 0.06
16526 C 35.5795258499829 47.46591108471284 51.92087942660055 C 0.0 **** -0.24
16527 H 35.62261319200489 47.52277754679693 53.00792688518143 H 0.0 **** 0.06
16528 H 35.58539944130247 46.42115998331741 51.61152500890134 H 0.0 **** 0.06
16529 H 36.44412634553052 47.976440844218644 51.49585241669723 H 0.0 **** 0.06
16530 H 34.66567498788702 47.94440332251503 51.56900254853704 H 0.0 **** 0.06
16531 C 74.23967043061478 0.5819464945775508 89.92809164544641 C 0.0 **** -0.24
16532 H 73.90199172544348 1.2768943607362075 90.69589307205061 H 0.0 **** 0.06
16533 H 74.79031877857832 1.1286337043393928 89.16138429107016 H 0.0 **** 0.06
16534 H 73.37642251858435 0.09245727184298858 89.4758417321184 H 0.0 **** 0.06
16535 H 74.88978189792934 -0.1690080566320944 90.3759988438419 H 0.0 **** 0.06
16536 C 90.8210349355158 21.178770775945466 99.28335812544793 C 0.0 **** -0.24
16537 H 91.48264075443714 20.890004893377434 100.09908079982634 H 0.0 **** 0.06
16538 H 91.31635217291489 21.926939037340535 98.66250323109085 H 0.0 **** 0.06
16539 H 89.90114058863125 21.59777729523676 99.69238936354799 H 0.0 **** 0.06
16540 H 90.58437265764405 20.304084847515234 98.67938136142385 H 0.0 **** 0.06
16541 C 27.487531309027332 46.41188123436649 29.14774741043874 C 0.0 **** -0.24
16542 H 27.50000514619896 46.042987525059026 28.121801288609362 H 0.0 **** 0.06
16543 H 28.18038421454972 45.826780061492585 29.752298503774185 H 0.0 **** 0.06
16544 H 26.48131569973779 46.31827167183981 29.5554898911563 H 0.0 **** 0.06
16545 H 27.78918496776403 47.45939794261876 29.160213571932445 H 0.0 **** 0.06
16546 C 62.201526164255455 63.09858599660364 62.129539373833914 C 0.0 **** -0.24
16547 H 62.775223798864346 62.20830566314664 61.87248976079274 H 0.0 **** 0.06
16548 H 61.95530317056057 63.64787510870979 61.220611268381994 H 0.0 **** 0.06
16549 H 62.79359706324007 63.73322088719565 62.78953196630598 H 0.0 **** 0.06
16550 H 61.28301252494339 62.80418788213799 62.63735924408113 H 0.0 **** 0.06
16551 C 41.726844839731996 48.93680573811261 38.746293333581036 C 0.0 **** -0.24
16552 H 42.4218887572376 48.28827394988775 39.27980814520188 H 0.0 **** 0.06
16553 H 40.97231361311826 48.32786304670864 38.24901478428413 H 0.0 **** 0.06
16554 H 42.271346853386696 49.5206892307051 38.004883774584556 H 0.0 **** 0.06
16555 H 41.2434494681213 49.60968926557399 39.45532387225313 H 0.0 **** 0.06
16556 C 97.62316154649088 77.19831131773796 105.40467640462381 C 0.0 **** -0.24
16557 H 98.55180248530306 76.89928983650128 104.91925525770924 H 0.0 **** 0.06
16558 H 96.92261447909402 76.36316545272553 105.39448947362939 H 0.0 **** 0.06
16559 H 97.18937990899147 78.04365207833894 104.86956322232825 H 0.0 **** 0.06
16560 H 97.82946547804013 77.48791245949835 106.43525462110404 H 0.0 **** 0.06
16561 C 37.07382968682202 53.06404414623205 110.16589024002892 C 0.0 **** -0.24
16562 H 37.98699775274535 52.64353243675944 109.74431750140462 H 0.0 **** 0.06
16563 H 36.96670323642209 52.73558217095583 111.20029020933353 H 0.0 **** 0.06
16564 H 36.216559540926596 52.724531300225905 109.58591575545421 H 0.0 **** 0.06
16565 H 37.127052995913886 54.15152180533327 110.13297979959043 H 0.0 **** 0.06
16566 C 67.4348216849317 82.7905806846475 9.167064570581061 C 0.0 **** -0.24
16567 H 67.73447292965972 83.45223660412117 9.979086170045434 H 0.0 **** 0.06
16568 H 68.16676676289143 81.98966348026926 9.061179620716814 H 0.0 **** 0.06
16569 H 67.37977840887328 83.35778430344283 8.238154546000771 H 0.0 **** 0.06
16570 H 66.45685928912354 82.36253859252042 9.389775493158766 H 0.0 **** 0.06
16571 C 22.900611744279793 85.42158459806527 113.06332520549398 C 0.0 **** -0.24
16572 H 23.247435214214306 84.9068765387841 113.9597033059033 H 0.0 **** 0.06
16573 H 23.660948760727116 86.13013924429916 112.73513548846657 H 0.0 **** 0.06
16574 H 21.977095402790923 85.95586041277261 113.28651681081192 H 0.0 **** 0.06
16575 H 22.71764791441113 84.69217608555985 112.27437082163175 H 0.0 **** 0.06
16576 C 16.44200045529948 5.594580029699898 41.909827455299364 C 0.0 **** -0.24
16577 H 17.18827447253244 6.0018133675705485 42.59094902027368 H 0.0 **** 0.06
16578 H 16.91875587037805 4.893168010110571 41.22516109955865 H 0.0 **** 0.06
16579 H 15.987518246982518 6.4060712421224935 41.341916833841935 H 0.0 **** 0.06
16580 H 15.672241045280884 5.0757935346765635 42.482448340397724 H 0.0 **** 0.06
16581 C 51.59918174212305 68.95724189796286 27.905288605291723 C 0.0 **** -0.24
16582 H 51.649379514778445 69.97947832338673 27.530994051505758 H 0.0 **** 0.06
16583 H 52.32369051582589 68.82892028552322 28.70961203669839 H 0.0 **** 0.06
16584 H 51.82789590546412 68.26279220118596 27.096143322480735 H 0.0 **** 0.06
16585 H 50.596261574491905 68.75731219674591 28.282813220897275 H 0.0 **** 0.06
16586 C 4.613571257946258 59.25933034003429 35.60921550669849 C 0.0 **** -0.24
16587 H 4.146653544071388 59.83911387442394 34.81270216735041 H 0.0 **** 0.06
16588 H 3.9185311913285457 58.496732643511656 35.959266322673685 H 0.0 **** 0.06
16589 H 4.874868562383316 59.92134364320979 36.43510030789642 H 0.0 **** 0.06
16590 H 5.516618803472573 58.78110839954365 35.2270825466274 H 0.0 **** 0.06
16591 C 62.82469277262674 115.38558430621356 64.21168448444826 C 0.0 **** -0.24
16592 H 63.114651926024045 115.1037237679654 63.20027121556694 H 0.0 **** 0.06
16593 H 62.104485721277236 116.2019922743678 64.16959723114235 H 0.0 **** 0.06
16594 H 63.706929580239624 115.70680111136188 64.76605673520874 H 0.0 **** 0.06
16595 H 62.373569423699 114.52822466438555 64.71245769757422 H 0.0 **** 0.06
16596 C 34.68855202110382 66.63563412435133 17.434718876987265 C 0.0 **** -0.24
16597 H 35.058655737134075 67.65519562122853 17.329428177378606 H 0.0 **** 0.06
16598 H 34.90752087622559 66.07418328988322 16.52693414472825 H 0.0 **** 0.06
16599 H 33.611396521633424 66.65571079395542 17.59868684434455 H 0.0 **** 0.06
16600 H 35.17593005068983 66.15854714189317 18.284367142523774 H 0.0 **** 0.06
16601 C 68.633440512949 61.05066711935664 59.52062497887632 C 0.0 **** -0.24
16602 H 68.38550070490379 62.11115650462785 59.540108053677024 H 0.0 **** 0.06
16603 H 68.12163488245068 60.57352190522615 58.6844270037486 H 0.0 **** 0.06
16604 H 68.31626491982894 60.585295661291504 60.454091980701456 H 0.0 **** 0.06
16605 H 69.71084382219459 60.93188350100109 59.40281933189889 H 0.0 **** 0.06
16606 C 70.35248764989137 111.58041203111286 92.38419420387854 C 0.0 **** -0.24
16607 H 71.29312550033961 111.16569885334944 92.74817367025247 H 0.0 **** 0.06
16608 H 70.5224133232519 112.59017602048081 92.00871903669511 H 0.0 **** 0.06
16609 H 69.6306398130967 111.61253381419967 93.20037645644356 H 0.0 **** 0.06
16610 H 69.96566024884117 110.95410319852311 91.5816730200307 H 0.0 **** 0.06
16611 C 3.3022867259707596 23.82548952466321 97.51278063826055 C 0.0 **** -0.24
16612 H 2.9231023318570237 24.802854089437993 97.811899836853 H 0.0 **** 0.06
16613 H 3.293828076643706 23.75076585249778 96.42516654306911 H 0.0 **** 0.06
16614 H 2.6695545332531196 23.04524514393694 97.93599601613647 H 0.0 **** 0.06
16615 H 4.322056978323275 23.704703460217132 97.87785858981817 H 0.0 **** 0.06
16616 C 74.32954134440831 26.50601152572375 55.61165471988472 C 0.0 **** -0.24
16617 H 74.54855773024445 26.899285577189744 56.60370604720966 H 0.0 **** 0.06
16618 H 73.842671292192 27.27775774909668 55.01353096852497 H 0.0 **** 0.06
16619 H 73.66772527767606 25.6434403599514 55.69996184323795 H 0.0 **** 0.06
16620 H 75.25802266339099 26.202777957162084 55.12843388120857 H 0.0 **** 0.06
16621 C 60.77935684977274 21.445283093776425 64.49081440235639 C 0.0 **** -0.24
16622 H 59.79800603611744 21.56375221618896 64.03259594454295 H 0.0 **** 0.06
16623 H 60.722441781059075 21.713678787992308 65.54591251117125 H 0.0 **** 0.06
16624 H 61.49668488955632 22.095181901848036 63.988468246046644 H 0.0 **** 0.06
16625 H 61.10148977884222 20.40777678414446 64.3964234015381 H 0.0 **** 0.06
16626 C 4.357019118707967 70.84827049341072 77.65004938255137 C 0.0 **** -0.24
16627 H 3.8320983383969747 71.51462072118514 76.96610634905642 H 0.0 **** 0.06
16628 H 4.254134560367959 71.22053294238191 78.67004452518486 H 0.0 **** 0.06
16629 H 5.412955413936572 70.81090722501798 77.38137090536048 H 0.0 **** 0.06
16630 H 3.9295930630057683 69.84822853784465 77.58288856423229 H 0.0 **** 0.06
16631 C 49.588083978334396 52.79606533994706 110.7436802515291 C 0.0 **** -0.24
16632 H 49.55638837236401 53.48726442491534 109.90135977082389 H 0.0 **** 0.06
16633 H 50.15047219904099 53.24528893329881 111.56160516369619 H 0.0 **** 0.06
16634 H 50.0730606076132 51.86923367814495 110.43428177554078 H 0.0 **** 0.06
16635 H 48.572433519284345 52.58009221187996 111.07565064073795 H 0.0 **** 0.06
16636 C 10.37555942622513 51.52843143749698 90.91457468746358 C 0.0 **** -0.24
16637 H 9.627541709122877 50.91640122189381 90.4099648215307 H 0.0 **** 0.06
16638 H 10.402697507188215 52.51861350084533 90.45797456961475 H 0.0 **** 0.06
16639 H 11.353097986531143 51.05733740005542 90.82013294710461 H 0.0 **** 0.06
16640 H 10.117035110371297 51.62229323710915 91.96940487387013 H 0.0 **** 0.06
16641 C 80.25868057284515 77.076692641759 10.705315081388619 C 0.0 **** -0.24
16642 H 79.72855510711423 77.87423193802783 11.227638484419856 H 0.0 **** 0.06
16643 H 80.93689203268366 77.51209251857381 9.97159052808513 H 0.0 **** 0.06
16644 H 79.53835767564738 76.43334305067299 10.199616732957566 H 0.0 **** 0.06
16645 H 80.82846745113324 76.48853664887201 11.424130052293435 H 0.0 **** 0.06
16646 C 93.93469431555692 13.15187980252237 2.4756013386656264 C 0.0 **** -0.24
16647 H 94.30017127557349 14.025164840582512 1.9355343152716955 H 0.0 **** 0.06
16648 H 93.3999834498616 13.47418466601044 3.3689492107110084 H 0.0 **** 0.06
16649 H 94.77928410352493 12.52424720730166 2.763749065397917 H 0.0 **** 0.06
16650 H 93.26208942419026 12.583008790849888 1.8333996407091178 H 0.0 **** 0.06
16651 C 70.9278017693413 26.2015657794241 20.62578518982903 C 0.0 **** -0.24
16652 H 70.64743613392986 25.1493880450179 20.59511585139048 H 0.0 **** 0.06
16653 H 71.94334385181077 26.295413284364457 21.01176647569531 H 0.0 **** 0.06
16654 H 70.24083465616718 26.741857238739712 21.275995006984573 H 0.0 **** 0.06
16655 H 70.88097742016905 26.61965242953427 19.619981216148716 H 0.0 **** 0.06
16656 C 88.52302537180512 69.6134748156206 84.3595867618443 C 0.0 **** -0.24
16657 H 89.3976897157695 70.05891746944752 83.88504305600736 H 0.0 **** 0.06
16658 H 88.75638321127676 68.59434934484372 84.66707161434101 H 0.0 **** 0.06
16659 H 87.69460262884499 69.60044844982187 83.65192964782489 H 0.0 **** 0.06
16660 H 88.24575777960035 70.20247020033594 85.23372272200584 H 0.0 **** 0.06
16661 C 67.7086547482298 74.24368036916749 69.38379555749395 C 0.0 **** -0.24
16662 H 68.6971422964948 73.81131048513802 69.54131464871801 H 0.0 **** 0.06
16663 H 67.77161489782239 75.02669147950726 68.62796938436429 H 0.0 **** 0.06
16664 H 67.34574430779688 74.66928528663956 70.3199681396624 H 0.0 **** 0.06
16665 H 67.02247880872537 73.46679766212219 69.04793493889233 H 0.0 **** 0.06
16666 C 7.954987143148344 46.420322897067635 71.35369193463902 C 0.0 **** -0.24
16667 H 8.701087324952766 46.66977696743132 70.60017373873046 H 0.0 **** 0.06
16668 H 7.224711299800163 47.227477636276234 71.4225691683435 H 0.0 **** 0.06
16669 H 8.442933986596643 46.28813517380726 72.31924350682567 H 0.0 **** 0.06
16670 H 7.449443512303731 45.49588643648576 71.0714180634277 H 0.0 **** 0.06
16671 C 49.4929016382074 69.32446601002158 0.893486999522846 C 0.0 **** -0.24
16672 H 48.94428034651142 68.38180895237022 0.8935653934171288 H 0.0 **** 0.06
16673 H 50.27771716672882 69.28742315339403 0.13613427756708063 H 0.0 **** 0.06
16674 H 49.941048075981826 69.48316671916965 1.8740390834929048 H 0.0 **** 0.06
16675 H 48.80909677664215 70.14275459792205 0.669040489726676 H 0.0 **** 0.06
16676 C 103.80576492744126 83.9049072734683 1.866954722228968 C 0.0 **** -0.24
16677 H 104.07371580359376 83.66356031455936 2.8950181812377735 H 0.0 **** 0.06
16678 H 102.74560961201158 83.70548030696835 1.7110696509292183 H 0.0 **** 0.06
16679 H 104.39459235720824 83.29144549492207 1.184595940889011 H 0.0 **** 0.06
16680 H 104.00995968361315 84.95877802597025 1.675652457265457 H 0.0 **** 0.06
16681 C 45.16839565944836 89.45554792251804 94.86037936923637 C 0.0 **** -0.24
16682 H 45.53239316722427 90.29920072235808 94.27466417370943 H 0.0 **** 0.06
16683 H 44.27925691839654 89.75549862061055 95.41621974986154 H 0.0 **** 0.06
16684 H 45.943263497412765 89.13636411389385 95.55761040582149 H 0.0 **** 0.06
16685 H 44.91821955436604 88.63045609442119 94.1924347281421 H 0.0 **** 0.06
16686 C 78.31124183539617 105.11545933677189 19.28207732677761 C 0.0 **** -0.24
16687 H 79.09302307341767 105.14194083987095 20.04153530962938 H 0.0 **** 0.06
16688 H 77.3346040055736 105.10530695965537 19.76607221528596 H 0.0 **** 0.06
16689 H 78.42508517137557 104.21649136343945 18.67554381676355 H 0.0 **** 0.06
16690 H 78.39244310445409 105.99527759944661 18.64525503024936 H 0.0 **** 0.06
16691 C 22.32212535033054 23.04332356270436 65.82943792909725 C 0.0 **** -0.24
16692 H 22.816612654180425 22.213515283650736 66.33403487025822 H 0.0 **** 0.06
16693 H 21.781586856648516 22.668533826513 64.95870460644537 H 0.0 **** 0.06
16694 H 23.068391028073243 23.769819105211695 65.50815561695308 H 0.0 **** 0.06
16695 H 21.622164254933065 23.51991797701146 66.51447712268575 H 0.0 **** 0.06
16696 C 78.35180428280697 29.61122975658816 69.11426488664264 C 0.0 **** -0.24
16697 H 77.65538056655575 30.038893597311784 68.39287717693333 H 0.0 **** 0.06
16698 H 77.81764130703647 28.921453012381164 69.76818274422826 H 0.0 **** 0.06
16699 H 78.79242604720636 30.410268192016105 69.71175856599223 H 0.0 **** 0.06
16700 H 79.13931013210288 29.07536826999143 68.58559060315724 H 0.0 **** 0.06
16701 C 31.794874304490577 108.88444479822437 9.880067956640744 C 0.0 **** -0.24
16702 H 32.08097277015838 109.35465945481684 10.820886968687034 H 0.0 **** 0.06
16703 H 30.707986462715724 108.87888432407459 9.792709376172326 H 0.0 **** 0.06
16704 H 32.16635515146572 107.8600319466062 9.858094170297619 H 0.0 **** 0.06
16705 H 32.22328217555787 109.44398745633433 9.048204200243788 H 0.0 **** 0.06
16706 C 64.56699643854111 104.2504336314291 13.960128387220365 C 0.0 **** -0.24
16707 H 64.20776129228872 104.95543478048648 13.209755067264211 H 0.0 **** 0.06
16708 H 65.62362029815483 104.43657919638414 14.155401230997711 H 0.0 **** 0.06
16709 H 64.43956385014991 103.23265979693625 13.59279221399538 H 0.0 **** 0.06
16710 H 63.99863377547377 104.37953606251091 14.881037175134551 H 0.0 **** 0.06
16711 C 8.231629396315668 87.06438056501577 50.65983067584931 C 0.0 **** -0.24
16712 H 8.80262165401109 87.22868481119701 51.57360500260511 H 0.0 **** 0.06
16713 H 7.436683038131434 86.3435305499952 50.853521589298055 H 0.0 **** 0.06
16714 H 8.891150146511535 86.67897078854469 49.8834015735511 H 0.0 **** 0.06
16715 H 7.794934505117169 88.00722057970194 50.33078077468872 H 0.0 **** 0.06
16716 C 95.18880525129148 22.43389546307037 42.28925980076663 C 0.0 **** -0.24
16717 H 95.25266051874931 22.257393418926085 43.363146723863736 H 0.0 **** 0.06
16718 H 95.76480073680548 21.673063160346032 41.76166238860459 H 0.0 **** 0.06
16719 H 95.59173730239002 23.420149595391422 42.0591530604641 H 0.0 **** 0.06
16720 H 94.14664770277503 22.384090645637798 41.97398581558926 H 0.0 **** 0.06
16721 C 9.411236968931917 13.585512278752358 56.77638564164991 C 0.0 **** -0.24
16722 H 10.19064841748991 14.107332122867561 57.33276814120316 H 0.0 **** 0.06
16723 H 8.477285324509552 14.14258314149862 56.8513786794762 H 0.0 **** 0.06
16724 H 9.274978516300337 12.586939704691456 57.190658465684976 H 0.0 **** 0.06
16725 H 9.704859130346705 13.506843569692538 55.72921809052477 H 0.0 **** 0.06
16726 C 83.56457675188108 91.79003515703397 96.95581726652645 C 0.0 **** -0.24
16727 H 82.5160524391332 91.67463466428907 97.22816812552645 H 0.0 **** 0.06
16728 H 84.16575105310466 91.07042373021199 97.51303671998764 H 0.0 **** 0.06
16729 H 83.89300998568183 92.80095500064161 97.1950957448204 H 0.0 **** 0.06
16730 H 83.68353240800764 91.61168246524812 95.88682031878841 H 0.0 **** 0.06
16731 C 27.932230302668245 95.06019472203963 0.8656201632392708 C 0.0 **** -0.24
16732 H 27.9972661801591 95.85078172567592 1.6130431235520462 H 0.0 **** 0.06
16733 H 27.356448579438563 94.22644779378174 1.2681683854898438 H 0.0 **** 0.06
16734 H 28.93545147303803 94.7199154870438 0.6086903990228336 H 0.0 **** 0.06
16735 H 27.439483452429783 95.44553025925245 -0.027995937709647478 H 0.0 **** 0.06
16736 C 47.4246617750627 2.1334330308707763 88.44402583128414 C 0.0 **** -0.24
16737 H 46.884114559255195 1.9567866267349245 87.51466085090175 H 0.0 **** 0.06
16738 H 46.784038024395144 1.8815840084185425 89.2899601827695 H 0.0 **** 0.06
16739 H 47.71072826841123 3.1832896918374445 88.5053487791991 H 0.0 **** 0.06
16740 H 48.31978899903936 1.511245070172663 88.46843923500381 H 0.0 **** 0.06
16741 C 114.09487767923126 77.00091673956541 103.04963202923648 C 0.0 **** -0.24
16742 H 113.84523702285607 78.06067915629725 102.99916695363089 H 0.0 **** 0.06
16743 H 113.50792530113796 76.52699458444769 103.83731429463819 H 0.0 **** 0.06
16744 H 115.15585829033125 76.88795668359589 103.26880237983025 H 0.0 **** 0.06
16745 H 113.86861239487652 76.52893624727307 102.09405997789003 H 0.0 **** 0.06
16746 C 45.399269437634295 112.99207170276946 46.433038875361135 C 0.0 **** -0.24
16747 H 45.672820349032165 113.40782491703231 47.40271032674093 H 0.0 **** 0.06
16748 H 45.20066399731762 111.92510875138908 46.53967177079658 H 0.0 **** 0.06
16749 H 46.21757604975334 113.14158592615348 45.72890370631176 H 0.0 **** 0.06
16750 H 44.504496253538534 113.49280010168383 46.06219303949486 H 0.0 **** 0.06
16751 C 70.32015589981737 8.416809465812577 115.09498543332543 C 0.0 **** -0.24
16752 H 71.36389126842946 8.145868000885287 115.24994896525592 H 0.0 **** 0.06
16753 H 69.68377398861585 7.565218663219355 115.33806115381807 H 0.0 **** 0.06
16754 H 70.16872577726753 8.6974311723353 114.0517519709289 H 0.0 **** 0.06
16755 H 70.06362609094336 9.25805876986297 115.73790032764026 H 0.0 **** 0.06
16756 C 46.07324141634237 27.54262927881029 13.193381131241097 C 0.0 **** -0.24
16757 H 46.53096948443303 28.30209718779357 12.560535175346416 H 0.0 **** 0.06
16758 H 46.36854320582361 27.707417902574882 14.22987626662865 H 0.0 **** 0.06
16759 H 46.406017051676 26.55527807096142 12.873899499814655 H 0.0 **** 0.06
16760 H 44.98846115874002 27.60522795228276 13.11005202940055 H 0.0 **** 0.06
16761 C 31.041053661910276 93.08537383679246 57.296150837380786 C 0.0 **** -0.24
16762 H 30.886563509268704 94.15953080489797 57.396715004662006 H 0.0 **** 0.06
16763 H 30.078370623752846 92.57539608856604 57.34077903520254 H 0.0 **** 0.06
16764 H 31.67809365753952 92.7328025757144 58.10713672059921 H 0.0 **** 0.06
16765 H 31.519656358527975 92.87528892488547 56.338815759905934 H 0.0 **** 0.06
16766 C 0.8828550073407655 33.979811656149195 63.78507312715476 C 0.0 **** -0.24
16767 H 0.738994111033378 34.747603917025 64.54475569900342 H 0.0 **** 0.06
16768 H -0.04893884979770746 33.830743526959 63.238200606810835 H 0.0 **** 0.06
16769 H 1.176598438890636 33.04611179245012 64.26453733042018 H 0.0 **** 0.06
16770 H 1.66335253155151 34.29479351436862 63.09283430811348 H 0.0 **** 0.06
16771 C 86.04583804035849 65.8950909369758 30.714146082312027 C 0.0 **** -0.24
16772 H 85.19480689697127 66.30008778830398 31.26087184439905 H 0.0 **** 0.06
16773 H 86.46248269827856 65.05126789801915 31.26339414138269 H 0.0 **** 0.06
16774 H 86.80750692164361 66.6676824484449 30.602923254912923 H 0.0 **** 0.06
16775 H 85.71931531708111 65.56347150895209 29.728490444908914 H 0.0 **** 0.06
16776 C 23.641664811484844 109.35005970219308 39.03075466439677 C 0.0 **** -0.24
16777 H 24.5971587744188 109.50688203373619 39.53002767404274 H 0.0 **** 0.06
16778 H 23.02029138104328 108.69014816915501 39.63577893729516 H 0.0 **** 0.06
16779 H 23.811909695601344 108.89509153119076 38.0551321987858 H 0.0 **** 0.06
16780 H 23.13681011056252 110.30756053592656 38.90140833869688 H 0.0 **** 0.06
16781 C 84.34726360745253 95.54478829047576 33.00693759239056 C 0.0 **** -0.24
16782 H 83.88958668376614 96.06122997707865 33.849976925050385 H 0.0 **** 0.06
16783 H 85.0891140787073 94.83453938331272 33.375296217683626 H 0.0 **** 0.06
16784 H 84.83253479813524 96.27107788725675 32.355134058710405 H 0.0 **** 0.06
16785 H 83.57892651185736 95.01013702096944 32.447079765360684 H 0.0 **** 0.06
16786 C 84.52081012284378 73.00729684933236 60.814119692817165 C 0.0 **** -0.24
16787 H 83.81679962736516 72.57706115523442 61.526364759180076 H 0.0 **** 0.06
16788 H 84.2915023393501 72.6438809824204 59.81184703440163 H 0.0 **** 0.06
16789 H 85.5355097926365 72.71432823632492 61.084217005793555 H 0.0 **** 0.06
16790 H 84.43857951554193 74.094621321608 60.834934795292305 H 0.0 **** 0.06
16791 C 22.203455010523783 84.48552437981303 43.05789931898201 C 0.0 **** -0.24
16792 H 22.290596261932137 84.5206593806839 41.97208557497552 H 0.0 **** 0.06
16793 H 21.732193445803546 85.40170768895274 43.413458370518384 H 0.0 **** 0.06
16794 H 23.196370361620268 84.39183460123004 43.49885732008062 H 0.0 **** 0.06
16795 H 21.595814728703544 83.62769999455435 43.345574771884486 H 0.0 **** 0.06
16796 C 89.55456364546558 101.94381098275801 87.58043054539235 C 0.0 **** -0.24
16797 H 89.99704543211277 101.91576850982608 86.58443401642788 H 0.0 **** 0.06
16798 H 88.91763509232263 102.82515845380223 87.66955605755908 H 0.0 **** 0.06
16799 H 90.34672701749776 101.99017840111955 88.32833553824182 H 0.0 **** 0.06
16800 H 88.95777498668139 101.04585293482538 87.73894925562095 H 0.0 **** 0.06
16801 C 65.87869811743727 37.342081875177826 5.5369237705391186 C 0.0 **** -0.24
16802 H 64.8916750659603 36.994600205558385 5.84380422728708 H 0.0 **** 0.06
16803 H 66.51658573611002 37.44322879244035 6.415035530330499 H 0.0 **** 0.06
16804 H 65.78453499712225 38.30806819602853 5.041858881482199 H 0.0 **** 0.06
16805 H 66.31948228559878 36.621233211076344 4.84811239888657 H 0.0 **** 0.06
16806 C 4.4214617989326825 51.23901144061978 69.72189421733373 C 0.0 **** -0.24
16807 H 4.9552549792799425 50.65557717857544 70.4723106966216 H 0.0 **** 0.06
16808 H 4.129308176813794 52.1991495154827 70.14919014165508 H 0.0 **** 0.06
16809 H 3.530980280725828 50.69629614856629 69.40504356738023 H 0.0 **** 0.06
16810 H 5.0706445940083995 51.40587388174481 68.86330403728385 H 0.0 **** 0.06
16811 C 29.375658601816127 38.888231104439 28.59993215701064 C 0.0 **** -0.24
16812 H 29.327076106285375 39.034740651153356 29.67912782308889 H 0.0 **** 0.06
16813 H 28.903293195417604 39.731552581026676 28.097652064302423 H 0.0 **** 0.06
16814 H 28.85523010314418 37.96837019907673 28.334751811949133 H 0.0 **** 0.06
16815 H 30.4187159008722 38.81735209161491 28.290509723007347 H 0.0 **** 0.06
16816 C 65.00516088031827 38.903855298047915 100.7534636603335 C 0.0 **** -0.24
16817 H 65.37166410292843 37.89287208448644 100.93224541239451 H 0.0 **** 0.06
16818 H 64.49730180896546 39.268741091679516 101.64578761706099 H 0.0 **** 0.06
16819 H 64.30750253902386 38.89359190764347 99.91632445837044 H 0.0 **** 0.06
16820 H 65.84497926958647 39.558175937344544 100.51905982236883 H 0.0 **** 0.06
16821 C 96.44721165453265 33.454035492285016 7.651428017532226 C 0.0 **** -0.24
16822 H 97.38212796469313 34.009306954785416 7.731924665683849 H 0.0 **** 0.06
16823 H 95.61954185002364 34.092575749606624 7.960679729850881 H 0.0 **** 0.06
16824 H 96.4904480740401 32.576240551853175 8.295093413209699 H 0.0 **** 0.06
16825 H 96.29947426496778 33.14108999996887 6.617840406554635 H 0.0 **** 0.06
16826 C 3.4701826558859636 76.13021260578734 66.9364334543846 C 0.0 **** -0.24
16827 H 3.092887837132878 76.01451925441665 65.92021976800163 H 0.0 **** 0.06
16828 H 4.5058893141965655 75.79380923587985 66.98009167132028 H 0.0 **** 0.06
16829 H 2.864673494448766 75.53222302185759 67.61843474155702 H 0.0 **** 0.06
16830 H 3.4149425758473058 77.17957167064816 67.22689805373889 H 0.0 **** 0.06
16831 C 93.49562515605243 93.96216524058536 24.140297408988133 C 0.0 **** -0.24
16832 H 93.43063905981327 94.77793470681016 23.420375504931442 H 0.0 **** 0.06
16833 H 92.58782420584976 93.35983096058399 24.0909264456498 H 0.0 **** 0.06
16834 H 93.60555891858087 94.3725843104722 25.144547068901915 H 0.0 **** 0.06
16835 H 94.35934683749659 93.33911178896841 23.906118250708197 H 0.0 **** 0.06
16836 C 69.51456517914511 27.29759269466038 16.712758078076853 C 0.0 **** -0.24
16837 H 70.57212611929668 27.13834475657103 16.50374017200148 H 0.0 **** 0.06
16838 H 69.38317868733208 27.519965871220847 17.771176833856828 H 0.0 **** 0.06
16839 H 68.95576021237531 26.397556270420495 16.45765423132764 H 0.0 **** 0.06
16840 H 69.14873835522775 28.13413983519314 16.116883744709526 H 0.0 **** 0.06
16841 C 72.38554128830921 69.29815653783601 70.43107245288977 C 0.0 **** -0.24
16842 H 72.93668717518165 68.68557486919974 69.71689702892414 H 0.0 **** 0.06
16843 H 71.31883333911259 69.08882698788918 70.34072334081301 H 0.0 **** 0.06
16844 H 72.5680830863154 70.35188059978307 70.22155006637186 H 0.0 **** 0.06
16845 H 72.7171512288931 69.06513826217343 71.44255841751956 H 0.0 **** 0.06
16846 C 12.345164297827836 80.13111648028712 8.743824411568376 C 0.0 **** -0.24
16847 H 12.480739188911912 79.68798841115427 9.730086290886291 H 0.0 **** 0.06
16848 H 13.298848358163823 80.52151684814152 8.387779653599814 H 0.0 **** 0.06
16849 H 11.621022177065925 80.94331816360511 8.807008115520322 H 0.0 **** 0.06
16850 H 11.980903711298595 79.37273791881717 8.050682462461044 H 0.0 **** 0.06
16851 C 91.47098111376124 112.14905334666591 43.496965126220594 C 0.0 **** -0.24
16852 H 92.03635958599136 112.98237695354578 43.07933665312721 H 0.0 **** 0.06
16853 H 91.21101445517104 112.37077714654359 44.532670943517346 H 0.0 **** 0.06
16854 H 92.07662844531373 111.24436808746864 43.460477147996635 H 0.0 **** 0.06
16855 H 90.56027547724247 112.0010533190102 42.91719123488936 H 0.0 **** 0.06
16856 C 55.07842784907991 74.6387987932253 50.99312403389001 C 0.0 **** -0.24
16857 H 54.99895112022603 75.67218909865332 50.653296741473014 H 0.0 **** 0.06
16858 H 54.73020472434476 74.56902521466046 52.02345740209745 H 0.0 **** 0.06
16859 H 56.118097845294365 74.31700656885019 50.93730645685946 H 0.0 **** 0.06
16860 H 54.465585100750275 73.9999288160706 50.35772144485355 H 0.0 **** 0.06
16861 C 114.23474611052377 100.26133579123487 54.25108665376709 C 0.0 **** -0.24
16862 H 114.95790194739305 100.6301041571119 53.524544830245986 H 0.0 **** 0.06
16863 H 114.73520134182911 100.07837037578534 55.202013986860415 H 0.0 **** 0.06
16864 H 113.79512713874561 99.3332624499586 53.88722193095393 H 0.0 **** 0.06
16865 H 113.44929911082289 101.00516381068502 54.39124213789097 H 0.0 **** 0.06
16866 C 82.3301516770627 44.703622036527804 118.80543385497197 C 0.0 **** -0.24
16867 H 82.19094390463925 45.7038213040218 118.39623691104086 H 0.0 **** 0.06
16868 H 82.79360482056467 44.06523844512611 118.05285749483082 H 0.0 **** 0.06
16869 H 81.36282879333856 44.28941144653402 119.08931161282435 H 0.0 **** 0.06
16870 H 82.97429076422895 44.75683235154759 119.68378579758718 H 0.0 **** 0.06
16871 C 20.281301901287577 52.57972691669258 4.609334945707687 C 0.0 **** -0.24
16872 H 19.350827186418144 52.72534595002622 4.060500291648609 H 0.0 **** 0.06
16873 H 20.41634358408163 53.39832467184495 5.317635122977521 H 0.0 **** 0.06
16874 H 21.117559117669316 52.56321014198426 3.9106507443073752 H 0.0 **** 0.06
16875 H 20.24062363397718 51.63480460611634 5.150058169921735 H 0.0 **** 0.06
16876 C 3.554390191329844 60.74421828778426 72.29375946460621 C 0.0 **** -0.24
16877 H 3.790547390939082 59.792573681617135 71.8195593147066 H 0.0 **** 0.06
16878 H 4.18475860696293 61.52826330026206 71.87119964962156 H 0.0 **** 0.06
16879 H 3.7359296501437598 60.671132549231054 73.36635654999748 H 0.0 **** 0.06
16880 H 2.5062304623091336 60.9871329035094 72.11893312940907 H 0.0 **** 0.06
16881 C 73.87638078025827 69.07170856401044 13.839790590214747 C 0.0 **** -0.24
16882 H 73.92728553466878 68.14010539693626 13.27562141970644 H 0.0 **** 0.06
16883 H 72.96277122189576 69.6050199897715 13.57738430421179 H 0.0 **** 0.06
16884 H 74.74118114032888 69.68918994025492 13.599206728687392 H 0.0 **** 0.06
16885 H 73.87394493717807 68.84954576024776 14.90673777878854 H 0.0 **** 0.06
16886 C 70.21180003998572 22.270869565585315 78.19739229391706 C 0.0 **** -0.24
16887 H 71.19896992464851 21.961255698427312 78.54136245999888 H 0.0 **** 0.06
16888 H 69.61865721680857 21.38935876973055 77.95455312372977 H 0.0 **** 0.06
16889 H 70.31582846925934 22.895536073606557 77.30994176688287 H 0.0 **** 0.06
16890 H 69.71485575901679 22.838984991191026 78.98472126039655 H 0.0 **** 0.06
16891 C 53.158072026201694 116.0633760212964 83.43015665495619 C 0.0 **** -0.24
16892 H 52.395025292005755 115.34509803217348 83.13335727367681 H 0.0 **** 0.06
16893 H 54.025708072701434 115.53160296965166 83.82130714922562 H 0.0 **** 0.06
16894 H 52.75733484076045 116.72124609641273 84.20243856025235 H 0.0 **** 0.06
16895 H 53.45511409665778 116.6568026667123 82.56515120721252 H 0.0 **** 0.06
16896 C 104.3776111900593 76.17428527990563 102.38709447915684 C 0.0 **** -0.24
16897 H 104.74259073353119 75.73431478208539 103.3154820584464 H 0.0 **** 0.06
16898 H 103.3657659897674 76.5523647414251 102.53885705832039 H 0.0 **** 0.06
16899 H 104.3695291622337 75.41610021175984 101.60416878688991 H 0.0 **** 0.06
16900 H 105.0323749430313 76.99462440251881 102.0926802547842 H 0.0 **** 0.06
16901 C 39.76704158892395 84.83012111517655 98.40708217649862 C 0.0 **** -0.24
16902 H 40.10344543089851 83.84938355604947 98.74290035052078 H 0.0 **** 0.06
16903 H 39.4344782508502 84.7651703660409 97.37077062392498 H 0.0 **** 0.06
16904 H 40.5901455667718 85.54158086868597 98.48088928824504 H 0.0 **** 0.06
16905 H 38.94092699149441 85.165756116664 99.03319105671193 H 0.0 **** 0.06
16906 C 51.14409452337617 116.29294172696845 54.460726634231776 C 0.0 **** -0.24
16907 H 50.950791877091945 117.35761091786978 54.589393379760985 H 0.0 **** 0.06
16908 H 51.86913836579777 115.96264368338234 55.20371460377846 H 0.0 **** 0.06
16909 H 51.54021662342558 116.11440494900125 53.46087939977801 H 0.0 **** 0.06
16910 H 50.21504556348242 115.73746125949714 54.58770707658663 H 0.0 **** 0.06
16911 C 52.71320659879771 34.89584595881331 16.9943376220736 C 0.0 **** -0.24
16912 H 51.967298343626965 34.35703521037033 16.409790414071352 H 0.0 **** 0.06
16913 H 52.3842186403792 35.9251987279855 17.142942713960593 H 0.0 **** 0.06
16914 H 53.664461176353 34.89063217406931 16.462659068236178 H 0.0 **** 0.06
16915 H 52.83613715357953 34.41027024790907 17.96261645475323 H 0.0 **** 0.06
16916 C 97.6068672837159 80.70353785317263 80.50103877161834 C 0.0 **** -0.24
16917 H 97.60920331552796 81.79322738150532 80.50658912053714 H 0.0 **** 0.06
16918 H 96.57831893769983 80.34182908980475 80.46856202589845 H 0.0 **** 0.06
16919 H 98.09339421540636 80.33476958908724 81.40462227267676 H 0.0 **** 0.06
16920 H 98.14656309581449 80.34341857531788 79.62546691565359 H 0.0 **** 0.06
16921 C 77.66429634006502 32.71152379730472 103.86989910491934 C 0.0 **** -0.24
16922 H 78.18285930242118 31.77460443841278 104.07321446560897 H 0.0 **** 0.06
16923 H 78.21903981450131 33.27917736305619 103.12262158405599 H 0.0 **** 0.06
16924 H 77.59106010747175 33.292746943105556 104.78867200007176 H 0.0 **** 0.06
16925 H 76.66234885387382 32.49724025070469 103.49483310321077 H 0.0 **** 0.06
16926 C 90.69382886914224 87.63039420670196 105.04278472491367 C 0.0 **** -0.24
16927 H 91.20540092700008 88.02807148469003 104.1662835088778 H 0.0 **** 0.06
16928 H 89.85332711461643 87.0150833277728 104.72410494112745 H 0.0 **** 0.06
16929 H 90.32926479632641 88.45603636458708 105.65487679337309 H 0.0 **** 0.06
16930 H 91.38876205063815 87.02517823324598 105.6255128847327 H 0.0 **** 0.06
16931 C 58.21215973366907 66.469948326229 27.23889433643518 C 0.0 **** -0.24
16932 H 58.65767352428867 67.22511782820541 27.885989398489954 H 0.0 **** 0.06
16933 H 57.184718065054426 66.75081908463292 27.006965863907084 H 0.0 **** 0.06
16934 H 58.22050544250857 65.50524360464237 27.746331746620058 H 0.0 **** 0.06
16935 H 58.786986468632676 66.39942790636024 26.315403312054997 H 0.0 **** 0.06
16936 C 77.29639125548778 31.365393472665488 50.47509975369882 C 0.0 **** -0.24
16937 H 78.12693165090997 31.968696797786464 50.109315271325 H 0.0 **** 0.06
16938 H 77.68410618842682 30.475998724241123 50.97228956383571 H 0.0 **** 0.06
16939 H 76.66553815545348 31.068170232504315 49.637208772081365 H 0.0 **** 0.06
16940 H 76.7080467408968 31.950194046090104 51.18253640830017 H 0.0 **** 0.06
16941 C 13.700387589069962 112.49866036054377 9.43248878859373 C 0.0 **** -0.24
16942 H 13.822993538852472 111.45692232112486 9.729645706544432 H 0.0 **** 0.06
16943 H 14.675383643402554 112.92766592640002 9.20108547389492 H 0.0 **** 0.06
16944 H 13.24126822365038 113.05709250744643 10.24912003832813 H 0.0 **** 0.06
16945 H 13.060194320729991 112.55126678302526 8.551588827293699 H 0.0 **** 0.06
16946 C 20.796656475977613 40.677200049000774 7.443087248121628 C 0.0 **** -0.24
16947 H 20.733101522062498 39.71466164006195 7.950211615990611 H 0.0 **** 0.06
16948 H 19.846607505516772 40.89370280168775 6.953559782446746 H 0.0 **** 0.06
16949 H 21.589841853320138 40.643004793326696 6.697079783730317 H 0.0 **** 0.06
16950 H 21.015753140046797 41.45780848375903 8.171829802876232 H 0.0 **** 0.06
16951 C 103.45745710972972 33.11184195761211 78.9046362375795 C 0.0 **** -0.24
16952 H 103.37922774955075 32.17471100611948 79.45554575878413 H 0.0 **** 0.06
16953 H 103.03957234314677 33.92033947039452 79.5054937369319 H 0.0 **** 0.06
16954 H 102.90433419170827 33.02957343706923 77.969081594665 H 0.0 **** 0.06
16955 H 104.50519581382508 33.32177325750115 78.69083494322157 H 0.0 **** 0.06
16956 C 112.41182026579675 7.291656260930882 45.0007609492456 C 0.0 **** -0.24
16957 H 112.58101017460542 7.999425214609559 44.18832415736961 H 0.0 **** 0.06
16958 H 113.09017277415302 6.445132832677762 44.890762887366805 H 0.0 **** 0.06
16959 H 111.38126378102494 6.9389777002970625 44.96632687866719 H 0.0 **** 0.06
16960 H 112.59580615679194 7.7846280691668 45.95524486542428 H 0.0 **** 0.06
16961 C 85.03345538985417 13.224886583810076 114.54341944557758 C 0.0 **** -0.24
16962 H 85.20273033895702 12.410471046035326 113.83830388630633 H 0.0 **** 0.06
16963 H 85.60397280944588 14.099979729217722 114.22988074491316 H 0.0 **** 0.06
16964 H 85.35743899164692 12.916661082689359 115.5369219225767 H 0.0 **** 0.06
16965 H 83.97207237502016 13.470683030350472 114.56678044669238 H 0.0 **** 0.06
16966 C 50.6795284513326 79.10659349269844 102.21221830427203 C 0.0 **** -0.24
16967 H 50.9841773684206 78.23192198987536 101.63641673673999 H 0.0 **** 0.06
16968 H 50.72010872369185 79.99188739040011 101.57691713321765 H 0.0 **** 0.06
16969 H 51.35314488456967 79.23590394534341 103.05971952207739 H 0.0 **** 0.06
16970 H 49.66145641202644 78.9647479750578 102.57495752894866 H 0.0 **** 0.06
16971 C 62.40191831571019 86.7831019941409 109.07538422358078 C 0.0 **** -0.24
16972 H 62.35620587745524 85.72786702800929 108.80491583877969 H 0.0 **** 0.06
16973 H 61.639307211600936 87.33272037209704 108.52265954194914 H 0.0 **** 0.06
16974 H 63.38734944247321 87.17933289638609 108.82794694713243 H 0.0 **** 0.06
16975 H 62.224907900882414 86.89152414674152 110.14498389740078 H 0.0 **** 0.06
16976 C 104.42677695935518 7.5943698864278275 38.72368860378867 C 0.0 **** -0.24
16977 H 104.25634862508485 8.443331207465476 39.38596833671565 H 0.0 **** 0.06
16978 H 104.43086707740517 7.936028483463964 37.68839334570981 H 0.0 **** 0.06
16979 H 103.63311619836554 6.860401824306898 38.86199271772121 H 0.0 **** 0.06
16980 H 105.38887245884132 7.13753340927417 38.95965335482954 H 0.0 **** 0.06
16981 C 23.993467583470874 44.48928177815807 61.484758240898714 C 0.0 **** -0.24
16982 H 23.018252566629656 44.01767260146224 61.611581381510064 H 0.0 **** 0.06
16983 H 24.340473683485527 44.87097655906234 62.444063368888976 H 0.0 **** 0.06
16984 H 23.908531537881004 45.31078041893491 60.77397531144271 H 0.0 **** 0.06
16985 H 24.704686010430237 43.754222472515295 61.106546925486896 H 0.0 **** 0.06
16986 C 60.981239554626434 8.334644468830447 102.3606802045091 C 0.0 **** -0.24
16987 H 61.992249863353386 8.342327789982278 101.95411574970774 H 0.0 **** 0.06
16988 H 60.26984144526717 8.123192043862332 101.56175328128643 H 0.0 **** 0.06
16989 H 60.75724244562432 9.307842531249207 102.79817355310536 H 0.0 **** 0.06
16990 H 60.905022143994536 7.5647226438300095 103.12930620811528 H 0.0 **** 0.06
16991 C 80.68580554783617 92.57574954987143 72.08937069299319 C 0.0 **** -0.24
16992 H 81.11476113655652 91.96870309206221 71.292378066335 H 0.0 **** 0.06
16993 H 81.26649342967823 92.43782409294184 73.00254802476408 H 0.0 **** 0.06
16994 H 79.65424127648438 92.27031229261644 72.2645700243452 H 0.0 **** 0.06
16995 H 80.70904957039596 93.62610306344351 71.79848274462896 H 0.0 **** 0.06
16996 C 50.79031493798999 53.35255043302868 87.01236000321452 C 0.0 **** -0.24
16997 H 50.8013062795693 52.64371737801238 87.84039108082811 H 0.0 **** 0.06
16998 H 49.90126895163479 53.18538103037778 86.40362012311473 H 0.0 **** 0.06
16999 H 51.68161601360276 53.210948826010764 86.40057655745932 H 0.0 **** 0.06
17000 H 50.77670278092057 54.36885563102041 87.40442880517514 H 0.0 **** 0.06
17001 C 39.16777785252391 95.6741110202756 73.59883072937001 C 0.0 **** -0.24
17002 H 38.750631574164174 96.67331841082279 73.72063012636241 H 0.0 **** 0.06
17003 H 39.71208927301288 95.62077603245291 72.65532074122058 H 0.0 **** 0.06
17004 H 38.36043420638681 94.94197957451289 73.5939998671833 H 0.0 **** 0.06
17005 H 39.8471467692076 95.46091002833299 74.42335890207394 H 0.0 **** 0.06
17006 C 83.16354022963256 3.126207772201127 44.5002830347572 C 0.0 **** -0.24
17007 H 82.98526700365738 3.110484425833832 43.42424255816353 H 0.0 **** 0.06
17008 H 82.21044445374596 3.0714713403022813 45.026750470373884 H 0.0 **** 0.06
17009 H 83.67601893310172 4.048689074531211 44.76933929523874 H 0.0 **** 0.06
17010 H 83.78187857339506 2.2719457785176473 44.777854231815155 H 0.0 **** 0.06
17011 C 99.48631043059706 96.61275471132276 110.690309344383 C 0.0 **** -0.24
17012 H 98.50580547103644 96.83409157739848 111.11097493667772 H 0.0 **** 0.06
17013 H 99.97762503270772 97.54295184426556 110.40313886429496 H 0.0 **** 0.06
17014 H 99.37028257392265 95.9766194569587 109.81239130217661 H 0.0 **** 0.06
17015 H 100.09260872908925 96.09645657820658 111.43488923065031 H 0.0 **** 0.06
17016 C 29.72130806172919 107.39166616650326 81.28688707632864 C 0.0 **** -0.24
17017 H 28.732569396482745 107.65369213801151 80.90926046723882 H 0.0 **** 0.06
17018 H 30.468732914573707 108.03546752845128 80.82317761153101 H 0.0 **** 0.06
17019 H 29.936988658630526 106.35099784588735 81.04636711406508 H 0.0 **** 0.06
17020 H 29.743648858967106 107.52769340202647 82.36741887057562 H 0.0 **** 0.06
17021 C 5.700405008819686 6.835276034515317 74.72965903105293 C 0.0 **** -0.24
17022 H 6.027039377717784 5.899868262982508 74.27548191739311 H 0.0 **** 0.06
17023 H 6.5272725901618855 7.546402388503324 74.73063753515027 H 0.0 **** 0.06
17024 H 5.379924865238749 6.648383727379979 75.75412682349733 H 0.0 **** 0.06
17025 H 4.868399082308983 7.245792688972159 74.15765747984688 H 0.0 **** 0.06
17026 C 65.03872548112093 29.582819007720104 60.723383231377206 C 0.0 **** -0.24
17027 H 64.71059993344508 30.212543284210938 61.55045005994874 H 0.0 **** 0.06
17028 H 64.2901680675671 29.60807947610425 59.930563352257856 H 0.0 **** 0.06
17029 H 65.16207720460167 28.558483160165792 61.07400404175407 H 0.0 **** 0.06
17030 H 65.9885068862873 29.95317608859088 60.339137979643404 H 0.0 **** 0.06
17031 C 11.370033850569058 76.99311633887663 50.975769423773215 C 0.0 **** -0.24
17032 H 10.9342590305138 77.87445474786557 51.44533670173047 H 0.0 **** 0.06
17033 H 12.287847158061936 76.72028588029048 51.498203093653046 H 0.0 **** 0.06
17034 H 11.596366439690044 77.21240893033183 49.932676981063594 H 0.0 **** 0.06
17035 H 10.662328624630618 76.1652578481868 51.02810727413339 H 0.0 **** 0.06
17036 C 114.82317694984377 48.24089136409873 67.83415169102597 C 0.0 **** -0.24
17037 H 114.99390774399228 48.24072093195258 66.7579381926599 H 0.0 **** 0.06
17038 H 114.13949994762793 47.43180724568403 68.09289338943441 H 0.0 **** 0.06
17039 H 114.3878757298472 49.19495959385384 68.13257968983686 H 0.0 **** 0.06
17040 H 115.77060127553113 48.095727825685884 68.3527481002152 H 0.0 **** 0.06
17041 C 103.20754435504688 87.25994308146545 19.73862623046513 C 0.0 **** -0.24
17042 H 103.69490908291667 88.21294987725031 19.948322041283905 H 0.0 **** 0.06
17043 H 103.89295685826269 86.61555783590566 19.186829160021087 H 0.0 **** 0.06
17044 H 102.31187307997428 87.4339197409702 19.142011884212568 H 0.0 **** 0.06
17045 H 102.93203453238868 86.77890839370593 20.67725211369431 H 0.0 **** 0.06
17046 C 11.817335776196213 24.97410637385937 25.338553482353397 C 0.0 **** -0.24
17047 H 11.339374060538045 24.042016801182086 25.63755199467468 H 0.0 **** 0.06
17048 H 12.274727349493052 24.84894759850431 24.355920826856163 H 0.0 **** 0.06
17049 H 12.58536495676901 25.238326790047495 26.065906460659846 H 0.0 **** 0.06
17050 H 11.071672391044206 25.76792657393409 25.293763090442482 H 0.0 **** 0.06
17051 C 63.4268270373052 100.49228317986154 107.5934487549222 C 0.0 **** -0.24
17052 H 63.4530267049775 100.11689865768989 106.57029645592249 H 0.0 **** 0.06
17053 H 64.16590737275513 99.96227614840035 108.19374479725954 H 0.0 **** 0.06
17054 H 62.433068652581 100.33066979848871 108.01317135237471 H 0.0 **** 0.06
17055 H 63.652566796741496 101.55845479011612 107.59523850041688 H 0.0 **** 0.06
17056 C 18.768058127557026 90.08005257840227 78.92352492180987 C 0.0 **** -0.24
17057 H 18.49206090249251 89.15137800445672 78.42496942640435 H 0.0 **** 0.06
17058 H 18.81954220723395 90.88473354449025 78.19035271951395 H 0.0 **** 0.06
17059 H 19.74048087575963 89.96033235303719 79.40204000334154 H 0.0 **** 0.06
17060 H 18.019417916834698 90.3230833062106 79.67815166483126 H 0.0 **** 0.06
17061 C 19.199002266494205 81.14008023591367 52.32240922597319 C 0.0 **** -0.24
17062 H 19.424835754667555 80.15679758432043 52.73807998484767 H 0.0 **** 0.06
17063 H 19.841220737101736 81.88660861648879 52.78922541753403 H 0.0 **** 0.06
17064 H 18.1544681321312 81.38472976796618 52.516830554786 H 0.0 **** 0.06
17065 H 19.3763763174816 81.12793295151812 51.24726903718661 H 0.0 **** 0.06
17066 C 21.027812523703915 31.260590019871522 91.84627746653749 C 0.0 **** -0.24
17067 H 21.045293547766903 30.217649688470964 92.16372587055503 H 0.0 **** 0.06
17068 H 20.12664040690217 31.4449745462778 91.26006690017792 H 0.0 **** 0.06
17069 H 21.90685098340208 31.468949143386922 91.23652635298981 H 0.0 **** 0.06
17070 H 21.031492650572204 31.90708253951584 92.72326286404837 H 0.0 **** 0.06
17071 C 111.70114349802847 87.37257740204464 63.10848922841936 C 0.0 **** -0.24
17072 H 112.7463481670357 87.34677553542048 62.79798622293566 H 0.0 **** 0.06
17073 H 111.11031890806048 86.73680475554937 62.44867179417534 H 0.0 **** 0.06
17074 H 111.33158409728816 88.39634639439024 63.05196086919432 H 0.0 **** 0.06
17075 H 111.61761083631895 87.01182777912891 64.13383677627533 H 0.0 **** 0.06
17076 C 41.32996976667721 69.9721416308929 16.077680754522497 C 0.0 **** -0.24
17077 H 40.90208166745947 70.84113722321644 15.578095938763727 H 0.0 **** 0.06
17078 H 41.02147285567352 69.06612866433073 15.556562054221121 H 0.0 **** 0.06
17079 H 40.977532635039836 69.93703205783919 17.10852213608734 H 0.0 **** 0.06
17080 H 42.41763107403156 70.04674366576097 16.066817028692128 H 0.0 **** 0.06
17081 C 98.13683787268332 88.05701557819512 100.46456258105857 C 0.0 **** -0.24
17082 H 98.05519797644328 87.99314291676725 101.54948182305571 H 0.0 **** 0.06
17083 H 97.19674103851347 88.42028874360784 100.05002538258225 H 0.0 **** 0.06
17084 H 98.35582726410595 87.06973569188949 100.05880329791319 H 0.0 **** 0.06
17085 H 98.94051057862467 88.74546266961735 100.20189473632541 H 0.0 **** 0.06
17086 C 30.717425166784494 72.4485025066414 20.913280726773394 C 0.0 **** -0.24
17087 H 30.054091786442214 71.59164915140425 21.036612800832913 H 0.0 **** 0.06
17088 H 31.623138242339977 72.29407986459998 21.499421511420692 H 0.0 **** 0.06
17089 H 30.210705558228796 73.35023735614163 21.2574363343941 H 0.0 **** 0.06
17090 H 30.978776176990706 72.5570972908983 19.861433163415242 H 0.0 **** 0.06
17091 C 15.981309178146525 111.00437826335795 71.66841756436907 C 0.0 **** -0.24
17092 H 15.058283477197065 111.5568104588713 71.84497295870187 H 0.0 **** 0.06
17093 H 16.788485930202487 111.45242600703827 72.24849473050168 H 0.0 **** 0.06
17094 H 16.230661894517706 111.04265382647162 70.60867717601482 H 0.0 **** 0.06
17095 H 15.847477273617848 109.9659002112503 71.97287278402678 H 0.0 **** 0.06
17096 C 46.197456878881525 113.2389831751129 7.750663702999557 C 0.0 **** -0.24
17097 H 45.596556659954715 112.63361819901351 8.429391003634173 H 0.0 **** 0.06
17098 H 45.997730336109925 112.9377359857866 6.722323774039577 H 0.0 **** 0.06
17099 H 47.254408967665654 113.0940223659785 7.972670857750856 H 0.0 **** 0.06
17100 H 45.940344166821305 114.2905844588833 7.8776533177839525 H 0.0 **** 0.06
17101 C 44.81988819392828 7.331665527166798 103.5631967406525 C 0.0 **** -0.24
17102 H 45.83035027726933 7.069206562949141 103.24922657889363 H 0.0 **** 0.06
17103 H 44.10914327346018 7.013816996680077 102.8007916642199 H 0.0 **** 0.06
17104 H 44.75032350825373 8.411085821485305 103.69756990945876 H 0.0 **** 0.06
17105 H 44.59090653770875 6.833335943067343 104.50507283857314 H 0.0 **** 0.06
17106 C 36.78721426835736 59.775030153678294 26.686676814050628 C 0.0 **** -0.24
17107 H 36.86440683885945 58.74130863512165 26.34903243881888 H 0.0 **** 0.06
17108 H 36.21975524246287 59.81240230101597 27.616510745252043 H 0.0 **** 0.06
17109 H 36.27910728593611 60.36827657916373 25.92662712885732 H 0.0 **** 0.06
17110 H 37.78678557737061 60.17816298641818 26.85264895382838 H 0.0 **** 0.06
17111 C 78.69264794807577 22.24209852597683 82.64945490923321 C 0.0 **** -0.24
17112 H 77.88846409378826 21.780207514724005 82.0763924238737 H 0.0 **** 0.06
17113 H 79.3995608319473 22.713700508196936 81.96633826177799 H 0.0 **** 0.06
17114 H 79.20503281732036 21.480073325145398 83.23533016278827 H 0.0 **** 0.06
17115 H 78.27507398636206 22.995627164864096 83.31854477516902 H 0.0 **** 0.06
17116 C 94.6504042368594 16.552579392758787 31.47213738922303 C 0.0 **** -0.24
17117 H 95.348925237993 16.3210108348313 32.276024797330216 H 0.0 **** 0.06
17118 H 94.50497971469238 17.632002617722122 31.418037065874564 H 0.0 **** 0.06
17119 H 93.69481510469711 16.065608244524213 31.66986992542767 H 0.0 **** 0.06
17120 H 95.05251702375435 16.191930600887616 30.525959678084817 H 0.0 **** 0.06
17121 C 84.10765855389462 68.44146942597737 44.89208852732111 C 0.0 **** -0.24
17122 H 84.39153520332525 68.40539437390461 43.83953339585008 H 0.0 **** 0.06
17123 H 84.76760117142163 67.79252011017664 45.46772043313723 H 0.0 **** 0.06
17124 H 83.07707360470283 68.10225798375555 45.001340016685276 H 0.0 **** 0.06
17125 H 84.19398448866912 69.46460306772042 45.25700483730742 H 0.0 **** 0.06
17126 C 71.6534990261589 74.52743553719588 39.56491216322544 C 0.0 **** -0.24
17127 H 71.067256561182 75.00605222439248 40.34977931589489 H 0.0 **** 0.06
17128 H 71.08608920963326 74.53084312871812 38.633984085256174 H 0.0 **** 0.06
17129 H 71.87441828128388 73.49966877855573 39.85240080942174 H 0.0 **** 0.06
17130 H 72.58671880467995 75.07320094961352 39.42435771491546 H 0.0 **** 0.06
17131 C 21.80503135230348 79.99387059890284 33.18301577124038 C 0.0 **** -0.24
17132 H 21.774495556169704 79.7860731102808 32.1130240000854 H 0.0 **** 0.06
17133 H 21.018303260137866 80.7058334993446 33.43543484983262 H 0.0 **** 0.06
17134 H 22.77473898003224 80.41655438759773 33.44378393617819 H 0.0 **** 0.06
17135 H 21.649506312591747 79.06895744887501 33.73788166724063 H 0.0 **** 0.06
17136 C 93.81903203125574 105.64253502574451 102.2647862264919 C 0.0 **** -0.24
17137 H 93.48280258423608 106.64915084601449 102.0137842537894 H 0.0 **** 0.06
17138 H 93.34804221291168 104.925298635442 101.59272885541989 H 0.0 **** 0.06
17139 H 93.54275730667385 105.41300582440229 103.29356372918943 H 0.0 **** 0.06
17140 H 94.90170053135634 105.58420499592356 102.15733373384634 H 0.0 **** 0.06
17141 C 24.62936192740022 101.77288341778694 71.69990346649001 C 0.0 **** -0.24
17142 H 25.698702759863487 101.76034633573533 71.49072284144009 H 0.0 **** 0.06
17143 H 24.24608005029296 102.78540877258982 71.57134993998099 H 0.0 **** 0.06
17144 H 24.455059939608724 101.44537782171855 72.7251129599835 H 0.0 **** 0.06
17145 H 24.116230143158056 101.10008985491106 71.01231259968952 H 0.0 **** 0.06
17146 C 35.788606585178144 101.18021529328234 115.80191009754627 C 0.0 **** -0.24
17147 H 35.47145004995724 101.75237084590361 114.92937333992694 H 0.0 **** 0.06
17148 H 34.94230760740197 101.04913039418307 116.4765102616382 H 0.0 **** 0.06
17149 H 36.58530328180032 101.71678485248671 116.31762230371446 H 0.0 **** 0.06
17150 H 36.154635880292375 100.20476095351458 115.48221347341035 H 0.0 **** 0.06
17151 C 6.422502453462101 91.6203861032962 114.11256155796629 C 0.0 **** -0.24
17152 H 5.400175858203426 91.9941608405824 114.15771991396963 H 0.0 **** 0.06
17153 H 6.8308958135090165 91.55518312867355 115.12144264619234 H 0.0 **** 0.06
17154 H 7.031844057473251 92.30003351543388 113.51625809947892 H 0.0 **** 0.06
17155 H 6.42796989110559 90.63145760188155 113.65397120933562 H 0.0 **** 0.06
17156 C 53.597903513751184 44.16054998154834 64.78053933649579 C 0.0 **** -0.24
17157 H 52.89691588285332 43.58701741813704 64.1742627518548 H 0.0 **** 0.06
17158 H 53.945862434296195 43.548245660598226 65.61215616334786 H 0.0 **** 0.06
17159 H 53.099898916629776 45.05066529405326 65.16652999854512 H 0.0 **** 0.06
17160 H 54.44836574594443 44.45819505677511 64.16676413409667 H 0.0 **** 0.06
17161 C 35.136971741544556 88.65751504103321 29.846612114063134 C 0.0 **** -0.24
17162 H 35.728266014984314 89.54664197168864 30.062833953392413 H 0.0 **** 0.06
17163 H 35.63867770426239 87.77892919267589 30.251484403228687 H 0.0 **** 0.06
17164 H 35.02772999563865 88.54862795203593 28.76691702020119 H 0.0 **** 0.06
17165 H 34.15150838486372 88.75652476923597 30.302835384906416 H 0.0 **** 0.06
17166 C 33.41632323360502 111.03901819528318 54.01951130546775 C 0.0 **** -0.24
17167 H 33.84286265429201 111.94279367579057 53.58586110507404 H 0.0 **** 0.06
17168 H 32.42629158625896 110.86518278805043 53.59609277830857 H 0.0 **** 0.06
17169 H 33.333151576265685 111.15962678134403 55.10022388973612 H 0.0 **** 0.06
17170 H 34.061719298918035 110.19000840717652 53.796879774744205 H 0.0 **** 0.06
17171 C 73.83876568472866 10.549084305775835 116.56470176218824 C 0.0 **** -0.24
17172 H 73.83918205497059 9.46200107652993 116.65036100708527 H 0.0 **** 0.06
17173 H 73.40706340833634 10.983843692745182 117.46683703767738 H 0.0 **** 0.06
17174 H 73.24636556407015 10.844964265075703 115.69941992206644 H 0.0 **** 0.06
17175 H 74.86238185573706 10.90352432602495 116.44317900471259 H 0.0 **** 0.06
17176 C 26.461601525456274 95.71994806067295 94.50222946294434 C 0.0 **** -0.24
17177 H 25.961846673915943 96.16859938793775 93.64469605553771 H 0.0 **** 0.06
17178 H 25.73259911086768 95.17718832757268 95.10507106719325 H 0.0 **** 0.06
17179 H 26.922256911227123 96.5023807805714 95.10606245083068 H 0.0 **** 0.06
17180 H 27.230886177909667 95.03037342585637 94.15289353772286 H 0.0 **** 0.06
17181 C 118.42956829278074 1.4209033902731107 95.89451673123904 C 0.0 **** -0.24
17182 H 118.39449237212133 0.3336529759794189 95.97802670275746 H 0.0 **** 0.06
17183 H 119.41223936674675 1.7770947490273556 96.20384641175394 H 0.0 **** 0.06
17184 H 117.6657892812451 1.8582524349291134 96.53744051905153 H 0.0 **** 0.06
17185 H 118.24546505869283 1.7113231910897753 94.86051196007622 H 0.0 **** 0.06
17186 C 45.934138546741664 50.494418280432036 1.4702179524861094 C 0.0 **** -0.24
17187 H 45.21381568861105 50.22348325980807 2.242971367842955 H 0.0 **** 0.06
17188 H 46.34053939401966 51.48353935205471 1.683744263633713 H 0.0 **** 0.06
17189 H 45.43818561532666 50.506140814229965 0.4999273722484645 H 0.0 **** 0.06
17190 H 46.743628720566164 49.763812808087415 1.456545409841283 H 0.0 **** 0.06
17191 C 70.57961633338704 115.22939096819873 81.163516555304 C 0.0 **** -0.24
17192 H 70.84307716323178 116.174979289268 81.63813084997616 H 0.0 **** 0.06
17193 H 70.7171674899947 114.41606544826307 81.87539912571384 H 0.0 **** 0.06
17194 H 71.22190413580259 115.06813855433333 80.29737878110524 H 0.0 **** 0.06
17195 H 69.53824767566627 115.2620228456035 80.84308239087389 H 0.0 **** 0.06
17196 C 106.74876383549861 39.61889622795752 27.779948229885342 C 0.0 **** -0.24
17197 H 106.35509910011791 40.025251292917744 26.8482705991986 H 0.0 **** 0.06
17198 H 107.20914028619367 40.419110507222115 28.35842651925283 H 0.0 **** 0.06
17199 H 107.49479560170826 38.85629070550584 27.55568943095279 H 0.0 **** 0.06
17200 H 105.9365262399204 39.174703132079685 28.35370605493292 H 0.0 **** 0.06
17201 C 84.41805082537621 71.74992553118614 38.12380667577497 C 0.0 **** -0.24
17202 H 84.60316760891433 70.9022614268278 37.464941103880534 H 0.0 **** 0.06
17203 H 85.12361776389437 71.72417331196448 38.95538096531459 H 0.0 **** 0.06
17204 H 83.40011058576977 71.69459569896645 38.50931391880246 H 0.0 **** 0.06
17205 H 84.54615852944178 72.67856085373467 37.56671468779922 H 0.0 **** 0.06
17206 C 109.21766797859144 101.4589192283282 98.76747999931703 C 0.0 **** -0.24
17207 H 109.50919131218987 100.62903242871667 99.41135314277324 H 0.0 **** 0.06
17208 H 110.05969726401338 101.74085445156618 98.13599070136792 H 0.0 **** 0.06
17209 H 108.92199590784654 102.30956899597089 99.38168809021582 H 0.0 **** 0.06
17210 H 108.37870310337846 101.15491713288088 98.1405355793492 H 0.0 **** 0.06
17211 C 25.71613347425898 36.7909833404421 68.08023134052621 C 0.0 **** -0.24
17212 H 26.218038348328037 37.758410334899565 68.10372799974795 H 0.0 **** 0.06
17213 H 26.334770397230045 36.07453611457038 67.5385096597592 H 0.0 **** 0.06
17214 H 24.754102845150044 36.89214759286267 67.57954747471916 H 0.0 **** 0.06
17215 H 25.559878541728494 36.43791620953408 69.09938027219783 H 0.0 **** 0.06
17216 C 45.48877431778814 72.5994019187547 16.87869156936114 C 0.0 **** -0.24
17217 H 46.191679057632506 73.43062792120105 16.822496972531354 H 0.0 **** 0.06
17218 H 45.12160954025732 72.36692574672907 15.878613833392482 H 0.0 **** 0.06
17219 H 44.650262290712426 72.8742523544314 17.51893091052874 H 0.0 **** 0.06
17220 H 45.99138535947842 71.72622400779588 17.29383251488016 H 0.0 **** 0.06
17221 C 42.58891788476379 54.78334717630614 8.68890395280583 C 0.0 **** -0.24
17222 H 43.67829014872833 54.77426140366052 8.652010962365608 H 0.0 **** 0.06
17223 H 42.213374666429246 55.6340037281588 8.118793978120578 H 0.0 **** 0.06
17224 H 42.2612581057429 54.86757126609072 9.725292377899194 H 0.0 **** 0.06
17225 H 42.20217953049639 53.8588310777545 8.259720983618053 H 0.0 **** 0.06
17226 C 2.6751389011892144 59.29928051213852 57.32367109668851 C 0.0 **** -0.24
17227 H 3.295116935867469 58.96835910412568 56.490676014138195 H 0.0 **** 0.06
17228 H 3.2398347216710306 59.99756549188686 57.941441513465996 H 0.0 **** 0.06
17229 H 2.382515531134416 58.43786823973471 57.9234752228622 H 0.0 **** 0.06
17230 H 1.7830884160837712 59.793329212806725 56.93909163628759 H 0.0 **** 0.06
17231 C 81.04206339930971 88.88656471607894 99.71395596768852 C 0.0 **** -0.24
17232 H 80.90498411430511 89.92467788934269 100.01446520322003 H 0.0 **** 0.06
17233 H 82.0118650509065 88.77263817945808 99.22986810954077 H 0.0 **** 0.06
17234 H 80.2524919382596 88.60347901404799 99.0167859378536 H 0.0 **** 0.06
17235 H 80.99687265923737 88.24406452382462 100.59300706891443 H 0.0 **** 0.06
17236 C 101.75069340841685 5.114351217969741 25.916214494944846 C 0.0 **** -0.24
17237 H 101.52072363648819 5.751463617248206 25.061804578332172 H 0.0 **** 0.06
17238 H 100.8741124145526 5.039662444575768 26.55973132970204 H 0.0 **** 0.06
17239 H 102.57965577870357 5.546530197995793 26.478044874513337 H 0.0 **** 0.06
17240 H 102.02974313659888 4.121690207997574 25.56351786808517 H 0.0 **** 0.06
17241 C 7.510621579298004 79.45955209103315 79.72904847292727 C 0.0 **** -0.24
17242 H 7.0193273470642055 80.18378635795128 80.37846840305099 H 0.0 **** 0.06
17243 H 6.785159186759913 79.05012476186641 79.02592034744464 H 0.0 **** 0.06
17244 H 7.926101697266205 78.65270519174229 80.33408071573541 H 0.0 **** 0.06
17245 H 8.313176919671008 79.95030306240034 79.17936863969405 H 0.0 **** 0.06
17246 C 32.55930591619261 101.93567565342002 21.261077464105654 C 0.0 **** -0.24
17247 H 32.547824970790195 103.02527422386589 21.26960230981348 H 0.0 **** 0.06
17248 H 32.56153995895536 101.58132316351686 20.229327491053596 H 0.0 **** 0.06
17249 H 31.674646692510038 101.55811892602048 21.773146309859385 H 0.0 **** 0.06
17250 H 33.45478568902508 101.57818801128349 21.769687478554488 H 0.0 **** 0.06
17251 C 44.206873972429946 10.096618720680027 63.643660258746735 C 0.0 **** -0.24
17252 H 44.77840938469484 9.478947999795338 62.95025938379757 H 0.0 **** 0.06
17253 H 44.448142718721215 9.8123896997067 64.66750925923355 H 0.0 **** 0.06
17254 H 43.141957267809346 9.950098315981933 63.46638170791039 H 0.0 **** 0.06
17255 H 44.45989253982577 11.145792554274749 63.487556119890826 H 0.0 **** 0.06
17256 C 116.0415204825677 40.3913204173885 89.618349426453 C 0.0 **** -0.24
17257 H 115.55574410244438 40.204005977067425 90.57601177972504 H 0.0 **** 0.06
17258 H 116.5503681365483 39.486185136548784 89.2860486772505 H 0.0 **** 0.06
17259 H 116.76805816491661 41.19657911280996 89.73091962513897 H 0.0 **** 0.06
17260 H 115.29290042477298 40.67861083730713 88.88030690203061 H 0.0 **** 0.06
17261 C 60.245206762147824 26.35896812321451 29.006824171999455 C 0.0 **** -0.24
17262 H 59.736584413794326 26.54284196527459 28.060759029648153 H 0.0 **** 0.06
17263 H 60.247337022799904 27.273101803424936 29.602268349618697 H 0.0 **** 0.06
17264 H 61.27092897097824 26.047984694579327 28.81366436509964 H 0.0 **** 0.06
17265 H 59.723310184582964 25.57243237445917 29.55189026708416 H 0.0 **** 0.06
17266 C 25.50291182374091 9.05602738990217 32.313865001147235 C 0.0 **** -0.24
17267 H 25.977639745399344 8.712901483542705 31.3952347618862 H 0.0 **** 0.06
17268 H 25.52512506426067 8.25634925070499 33.05418318393154 H 0.0 **** 0.06
17269 H 24.467889403192196 9.330696054401187 32.106625105655894 H 0.0 **** 0.06
17270 H 26.039464712288883 9.92360355400298 32.697883442478854 H 0.0 **** 0.06
17271 C 67.93443233402837 42.342912425552875 27.732875861161972 C 0.0 **** -0.24
17272 H 67.87447706746315 43.3263141779114 28.199186840759694 H 0.0 **** 0.06
17273 H 68.79949447761538 42.307336752729675 27.069794797418638 H 0.0 **** 0.06
17274 H 67.0269597946438 42.15804945638281 27.157651670853056 H 0.0 **** 0.06
17275 H 68.03679799639161 41.579949315187605 28.504870135616613 H 0.0 **** 0.06
17276 C 89.68411549296397 8.32780498228496 106.6609744005016 C 0.0 **** -0.24
17277 H 88.77946968362517 8.637074085998464 106.1379819357798 H 0.0 **** 0.06
17278 H 89.64429706871698 8.675332386965039 107.69364947277805 H 0.0 **** 0.06
17279 H 90.55549775052185 8.75755378506986 106.16611629739239 H 0.0 **** 0.06
17280 H 89.75801113681527 7.240102986759126 106.64616185893632 H 0.0 **** 0.06
17281 C 65.65865948708284 41.1168589076849 97.99905780155899 C 0.0 **** -0.24
17282 H 65.95629472677109 40.72644073212143 97.02591727911698 H 0.0 **** 0.06
17283 H 65.06550941570299 40.36920571905867 98.52477656506176 H 0.0 **** 0.06
17284 H 65.06524414319136 42.021690628361284 97.86178999786898 H 0.0 **** 0.06
17285 H 66.54866171194936 41.35210841899115 98.58284653504921 H 0.0 **** 0.06
17286 C 61.529700423050826 35.922113653139306 118.39723173381577 C 0.0 **** -0.24
17287 H 62.578163455985305 35.87787531076367 118.69106123460293 H 0.0 **** 0.06
17288 H 61.440915278808916 36.4424361628279 117.44350836753424 H 0.0 **** 0.06
17289 H 60.96217303042158 36.457179975606266 119.15801238803121 H 0.0 **** 0.06
17290 H 61.13859116019887 34.90957968957348 118.29638977095874 H 0.0 **** 0.06
17291 C 59.08684196165058 86.42652640673907 65.86067496085113 C 0.0 **** -0.24
17292 H 59.92631830471572 87.06111028824895 66.14307765435231 H 0.0 **** 0.06
17293 H 58.329507546142565 87.02911468011587 65.35803234800107 H 0.0 **** 0.06
17294 H 58.65710868978505 85.97373065906567 66.75432304976664 H 0.0 **** 0.06
17295 H 59.43341769218745 85.6427392961875 65.18805506485964 H 0.0 **** 0.06
17296 C 86.85265964112699 60.25900487014916 104.5897682458745 C 0.0 **** -0.24
17297 H 87.14563924661803 61.04343581206263 103.89250461349803 H 0.0 **** 0.06
17298 H 85.90832656250538 60.52755417123871 105.06338716901348 H 0.0 **** 0.06
17299 H 87.62329119649203 60.144146327915685 105.3524294592541 H 0.0 **** 0.06
17300 H 86.73333821401829 59.318791844056015 104.04996131627414 H 0.0 **** 0.06
17301 C 89.15827531062521 113.61453880348819 83.62082446768233 C 0.0 **** -0.24
17302 H 89.46035606071726 113.16062802597848 82.67709792662617 H 0.0 **** 0.06
17303 H 88.12156710956799 113.35499748167095 83.83302701692145 H 0.0 **** 0.06
17304 H 89.25470406326039 114.69872175233284 83.54937167879908 H 0.0 **** 0.06
17305 H 89.79739310129003 113.24512829573929 84.42224810328821 H 0.0 **** 0.06
17306 C 49.42338051194356 64.40097722412995 14.36118826825259 C 0.0 **** -0.24
17307 H 48.673213722071694 64.6265443426989 15.119179584989382 H 0.0 **** 0.06
17308 H 50.35808631433383 64.90213070810654 14.614655967736724 H 0.0 **** 0.06
17309 H 49.07450536444787 64.75084244674474 13.389467607876895 H 0.0 **** 0.06
17310 H 49.58711256518356 63.32313176872063 14.321670216756473 H 0.0 **** 0.06
17311 C 77.57798355405237 118.21545338560688 116.7990939955603 C 0.0 **** -0.24
17312 H 77.54627224236941 118.3214260257188 115.7144088794945 H 0.0 **** 0.06
17313 H 78.47378075999745 118.70115498107344 117.18572544796109 H 0.0 **** 0.06
17314 H 77.59743433386177 117.15709409647536 117.05972375347265 H 0.0 **** 0.06
17315 H 76.69489521105987 118.68089642415812 117.23539693135118 H 0.0 **** 0.06
17316 C 56.55552730949622 38.172065937459536 101.57343684997875 C 0.0 **** -0.24
17317 H 56.93363883435591 39.13386166911731 101.91939232580631 H 0.0 **** 0.06
17318 H 55.51180334473178 38.276764093528726 101.27757685572823 H 0.0 **** 0.06
17319 H 56.634127224724075 37.44005328721923 102.37779445432636 H 0.0 **** 0.06
17320 H 57.143354554156964 37.83610893795165 100.71858560142539 H 0.0 **** 0.06
17321 C 2.7592218438063014 23.021437504831113 87.79573704197026 C 0.0 **** -0.24
17322 H 2.546981497717752 24.008264123310823 88.20632051906011 H 0.0 **** 0.06
17323 H 1.8254429001368067 22.54364911185303 87.49750430150118 H 0.0 **** 0.06
17324 H 3.2550050281276413 22.412582652623342 88.5513621709469 H 0.0 **** 0.06
17325 H 3.4090887522366415 23.122789936104 86.92617836536249 H 0.0 **** 0.06
17326 C 52.30001530144972 112.25557527552357 69.18241564642076 C 0.0 **** -0.24
17327 H 53.17475856323142 112.65440582792466 69.69755259306527 H 0.0 **** 0.06
17328 H 51.9988931086952 111.31899009668568 69.65124095646044 H 0.0 **** 0.06
17329 H 52.54530203062723 112.07640349700216 68.13595426662425 H 0.0 **** 0.06
17330 H 51.483007813963866 112.9748294597894 69.2471443619807 H 0.0 **** 0.06
17331 C 56.973183021523546 58.04734965288626 65.13563775465056 C 0.0 **** -0.24
17332 H 57.110012850202445 59.066462497740325 64.77466525141944 H 0.0 **** 0.06
17333 H 56.15808155840963 57.57330479035108 64.58862892881928 H 0.0 **** 0.06
17334 H 56.7341073214265 58.06842076493721 66.19870565670001 H 0.0 **** 0.06
17335 H 57.891752809821064 57.48099059105909 64.98122744952875 H 0.0 **** 0.06
17336 C 49.3160137050757 11.74174752676042 90.57472496472937 C 0.0 **** -0.24
17337 H 48.3665686381857 12.18779808218926 90.86901983827221 H 0.0 **** 0.06
17338 H 49.448153061919236 10.791638656404103 91.09432097493652 H 0.0 **** 0.06
17339 H 50.13129864815372 12.416210754740916 90.83817977563436 H 0.0 **** 0.06
17340 H 49.31920691432722 11.570833610751365 89.49798458999086 H 0.0 **** 0.06
17341 C 23.53241798037857 45.544251871798934 55.49134515796504 C 0.0 **** -0.24
17342 H 22.637035325532224 46.060531233556986 55.14611472424173 H 0.0 **** 0.06
17343 H 24.358370153726753 46.25290476772847 55.55184016868992 H 0.0 **** 0.06
17344 H 23.786914388198255 44.74946606387195 54.790398905973944 H 0.0 **** 0.06
17345 H 23.348666182847666 45.11584938229595 56.47654520972824 H 0.0 **** 0.06
17346 C 23.195563668723437 16.46653228051477 79.32135745473153 C 0.0 **** -0.24
17347 H 22.76577208108776 16.986116324712754 80.17837043207629 H 0.0 **** 0.06
17348 H 24.134488330507622 16.943694039150955 79.04068736179391 H 0.0 **** 0.06
17349 H 22.49984909088772 16.511839444339273 78.4829905274211 H 0.0 **** 0.06
17350 H 23.38091382530567 15.424467318496824 79.58407702443856 H 0.0 **** 0.06
17351 C 114.97104689338514 52.23311305155005 93.0928926770573 C 0.0 **** -0.24
17352 H 114.53544059258891 52.49058924790535 94.05857831799597 H 0.0 **** 0.06
17353 H 116.05108045339801 52.12815597739842 93.19758322735413 H 0.0 **** 0.06
17354 H 114.75107880419768 53.022091618214745 92.37376026522739 H 0.0 **** 0.06
17355 H 114.54634572672052 51.29247155753308 92.74119236007013 H 0.0 **** 0.06
17356 C 28.6941206999513 114.25993856793093 61.20772101028469 C 0.0 **** -0.24
17357 H 27.862730958926477 114.70938244647213 61.75106794110379 H 0.0 **** 0.06
17358 H 28.666530790544556 113.17734327508234 61.334692835767164 H 0.0 **** 0.06
17359 H 29.634268870139152 114.64807677565045 61.59870525268331 H 0.0 **** 0.06
17360 H 28.6112218529031 114.50539205625476 60.14921314371001 H 0.0 **** 0.06
17361 C 9.493316840140665 79.05821898082189 14.405490936787288 C 0.0 **** -0.24
17362 H 9.739258383357424 78.07576526506892 14.003476040245914 H 0.0 **** 0.06
17363 H 8.725434739957109 79.52218988349733 13.786128623232543 H 0.0 **** 0.06
17364 H 10.386523256545729 79.68401880520611 14.406215676810746 H 0.0 **** 0.06
17365 H 9.12451534317779 78.95154412381692 15.42491254378507 H 0.0 **** 0.06
17366 C 75.0968052465231 23.487595537559827 36.40852189936405 C 0.0 **** -0.24
17367 H 76.02856413593543 24.030795904116076 36.558088463588476 H 0.0 **** 0.06
17368 H 74.96644074794219 22.7605029074939 37.20997805380035 H 0.0 **** 0.06
17369 H 75.12829373672156 22.969714015892947 35.449367669737065 H 0.0 **** 0.06
17370 H 74.26249798162095 24.18920498210923 36.414937480397484 H 0.0 **** 0.06
17371 C 16.374619662991307 52.45416518475139 90.26184096245782 C 0.0 **** -0.24
17372 H 17.285967923796164 52.28818511651076 90.83652918180462 H 0.0 **** 0.06
17373 H 15.784866674619622 53.24000735591056 90.73428893944444 H 0.0 **** 0.06
17374 H 15.793673923783558 51.53307923399535 90.22871659435071 H 0.0 **** 0.06
17375 H 16.635429014453678 52.75650592188083 89.24703891400208 H 0.0 **** 0.06
17376 C 61.56977373756547 104.54997574525225 48.05738057473923 C 0.0 **** -0.24
17377 H 62.16754287500726 105.41580997662396 48.341638720782754 H 0.0 **** 0.06
17378 H 61.529391602510486 103.8470228208839 48.88929584933942 H 0.0 **** 0.06
17379 H 62.02114132214194 104.06521026821079 47.19256370432035 H 0.0 **** 0.06
17380 H 60.559321659093484 104.8742256098235 47.80674689309075 H 0.0 **** 0.06
17381 C 3.2396986895870725 111.96209839686252 5.226790026704151 C 0.0 **** -0.24
17382 H 3.4947896413807484 110.94923540580359 5.537260142952931 H 0.0 **** 0.06
17383 H 3.659131886848513 112.67610078498366 5.936181316618018 H 0.0 **** 0.06
17384 H 2.1558548338028345 112.07204078802363 5.197898695466733 H 0.0 **** 0.06
17385 H 3.6507972135505895 112.1526071408807 4.235266446779434 H 0.0 **** 0.06
17386 C 43.92479996726718 40.542562243146676 110.16485638714133 C 0.0 **** -0.24
17387 H 44.75220646960949 39.932044480636065 110.52403601875173 H 0.0 **** 0.06
17388 H 42.98569131836962 40.147520212984574 110.55342859418332 H 0.0 **** 0.06
17389 H 43.90457709897882 40.522292573768496 109.07490694486 H 0.0 **** 0.06
17390 H 44.05558343223416 41.568956212049386 110.50643891922158 H 0.0 **** 0.06
17391 C 8.26432538719311 69.66628452356298 80.94451981962152 C 0.0 **** -0.24
17392 H 8.219327125577166 69.68634519359958 79.85494495623712 H 0.0 **** 0.06
17393 H 9.277542985313602 69.41713625664693 81.26135079290441 H 0.0 **** 0.06
17394 H 7.56982127686409 68.9157572103941 81.32240258039772 H 0.0 **** 0.06
17395 H 7.990665670379684 70.64511632536158 81.33728715980448 H 0.0 **** 0.06
17396 C 54.46101990424728 72.70613093052415 36.101894436225166 C 0.0 **** -0.24
17397 H 54.651899611714896 72.31030582410816 35.10432388692561 H 0.0 **** 0.06
17398 H 55.309455006416954 72.48238458476789 36.74922670688909 H 0.0 **** 0.06
17399 H 53.5610305892518 72.24598714857194 36.50868363058498 H 0.0 **** 0.06
17400 H 54.32271988690928 73.78576890294258 36.04335789220778 H 0.0 **** 0.06
17401 C 34.861873123362045 110.05660317781343 3.4120683742468145 C 0.0 **** -0.24
17402 H 34.27263595817993 109.2290815912653 3.0151915189948824 H 0.0 **** 0.06
17403 H 34.93269006714135 109.9637452341392 4.495198032305552 H 0.0 **** 0.06
17404 H 34.37755437894373 111.00092260165448 3.1588690770144154 H 0.0 **** 0.06
17405 H 35.86045628184084 110.03223586678732 2.9777708058520886 H 0.0 **** 0.06
17406 C 9.249264159507533 91.53407404925994 53.45752853084835 C 0.0 **** -0.24
17407 H 8.473504416154782 92.29343809345494 53.554283997902104 H 0.0 **** 0.06
17408 H 9.424806162894356 91.06894477976243 54.42660759361286 H 0.0 **** 0.06
17409 H 10.169655553943358 91.99915176074222 53.10391717157532 H 0.0 **** 0.06
17410 H 8.927889473893643 90.77657333426461 52.74280023485554 H 0.0 **** 0.06
17411 C 18.615758254373894 57.49992269983568 102.06533879234846 C 0.0 **** -0.24
17412 H 17.85777735079836 58.18268464496862 102.44787321250575 H 0.0 **** 0.06
17413 H 19.573952345633536 58.017167217128645 102.00737486576003 H 0.0 **** 0.06
17414 H 18.327206151418586 57.156388357364165 101.07246349869601 H 0.0 **** 0.06
17415 H 18.704388294221022 56.64420435314673 102.73517566554423 H 0.0 **** 0.06
17416 C 96.64206281110702 25.260875746157836 22.97942402491833 C 0.0 **** -0.24
17417 H 97.3620639217541 25.867550175640538 23.528550695406864 H 0.0 **** 0.06
17418 H 96.06637100777215 25.898234019589125 22.308740112280077 H 0.0 **** 0.06
17419 H 95.96766868079698 24.771734632423026 23.683614485874784 H 0.0 **** 0.06
17420 H 97.17074804336164 24.50534726609947 22.398697601095364 H 0.0 **** 0.06
17421 C 38.42084695970087 46.15410531249256 93.7776494394349 C 0.0 **** -0.24
17422 H 38.44519941260418 47.180941891187274 94.14386962803403 H 0.0 **** 0.06
17423 H 37.47955277114647 45.976986803258626 93.25690105323096 H 0.0 **** 0.06
17424 H 38.50617863948847 45.4667846238425 94.61903895493393 H 0.0 **** 0.06
17425 H 39.25279796129652 45.993703304614996 93.09173814030692 H 0.0 **** 0.06
17426 C 84.09894449154328 60.21182610488802 111.60963168348394 C 0.0 **** -0.24
17427 H 83.55429849408657 59.27235319698258 111.52041896250438 H 0.0 **** 0.06
17428 H 85.17018105413223 60.01035190784643 111.6173095574631 H 0.0 **** 0.06
17429 H 83.81532054493317 60.70881381182858 112.53727182744046 H 0.0 **** 0.06
17430 H 83.85562447814198 60.854565566193344 110.76414846660387 H 0.0 **** 0.06
17431 C 19.0652755532021 26.023122169141608 52.77207590670835 C 0.0 **** -0.24
17432 H 19.974640820405142 26.613907644261126 52.88174311415506 H 0.0 **** 0.06
17433 H 19.20859184599766 25.046121919283785 53.234825931963314 H 0.0 **** 0.06
17434 H 18.84165159633895 25.89390990281761 51.71256509810922 H 0.0 **** 0.06
17435 H 18.236745298702886 26.538224014035393 53.25789815731903 H 0.0 **** 0.06
17436 C 110.12005185249186 46.53447481502758 116.74411784266056 C 0.0 **** -0.24
17437 H 110.41579170249943 46.9215628529073 115.76877616414333 H 0.0 **** 0.06
17438 H 109.68015424150579 45.54400054988258 116.62261697040157 H 0.0 **** 0.06
17439 H 109.38745780619507 47.20468858599048 117.19454327764157 H 0.0 **** 0.06
17440 H 110.9957897964419 46.466977768664776 117.38981110456513 H 0.0 **** 0.06
17441 C 58.45521196280364 100.08629473760917 64.47217689467985 C 0.0 **** -0.24
17442 H 58.83938924686462 99.79354528521876 65.44938677461147 H 0.0 **** 0.06
17443 H 59.076714724332625 100.88124130062559 64.06057414872154 H 0.0 **** 0.06
17444 H 57.43033450777636 100.44247562411138 64.57683324999275 H 0.0 **** 0.06
17445 H 58.47431204203773 99.22668122354168 63.80259468495502 H 0.0 **** 0.06
17446 C 118.255755487486 48.781930905931105 1.9328454638612556 C 0.0 **** -0.24
17447 H 118.58984706475022 48.4888434755893 0.9378916422066794 H 0.0 **** 0.06
17448 H 118.28255189647626 49.868797960155575 2.0188489742087086 H 0.0 **** 0.06
17449 H 118.9129767389197 48.34138392392164 2.6822753318295867 H 0.0 **** 0.06
17450 H 117.23639034113103 48.42934254363465 2.0922780757428825 H 0.0 **** 0.06
17451 C 26.509807565913604 48.109588226388524 101.34144413565684 C 0.0 **** -0.24
17452 H 26.609571411057914 48.67833174186097 102.26592320893343 H 0.0 **** 0.06
17453 H 25.629655920066114 48.45295379295379 100.79774684727312 H 0.0 **** 0.06
17454 H 26.403174626403597 47.050226842576706 101.57622590928943 H 0.0 **** 0.06
17455 H 27.397472333438714 48.2575785808051 100.72690068704463 H 0.0 **** 0.06
17456 C 104.43173293530901 24.171471825188007 30.129493404733523 C 0.0 **** -0.24
17457 H 104.53180591025085 24.857701500140706 29.28797997120239 H 0.0 **** 0.06
17458 H 105.01720023280433 24.542230074614395 30.970990254280025 H 0.0 **** 0.06
17459 H 104.7938485826852 23.185437695818365 29.839032559303348 H 0.0 **** 0.06
17460 H 103.38303586601762 24.102667375545252 30.419426156620887 H 0.0 **** 0.06
17461 C 108.81358001002741 57.80833944686941 14.38635306616203 C 0.0 **** -0.24
17462 H 108.7978912101816 58.13473803852298 13.346914112585011 H 0.0 **** 0.06
17463 H 107.89528926138354 58.12600571183805 14.881126615488427 H 0.0 **** 0.06
17464 H 109.67151676135383 58.251139167272584 14.893091218345262 H 0.0 **** 0.06
17465 H 108.88968569160866 56.72219442348376 14.424971944333834 H 0.0 **** 0.06
17466 C 44.72613315888867 52.6558981818481 11.768896577121353 C 0.0 **** -0.24
17467 H 44.14966116236127 52.617283580480404 12.69281458211475 H 0.0 **** 0.06
17468 H 44.213428417830244 52.080813048316486 10.99777109187184 H 0.0 **** 0.06
17469 H 45.71572745078487 52.233104072612065 11.939612114662651 H 0.0 **** 0.06
17470 H 44.82339951189073 53.69219395893512 11.444615968571952 H 0.0 **** 0.06
17471 C 21.06320046294988 97.82172831694243 38.39668006807824 C 0.0 **** -0.24
17472 H 20.88505164037136 98.67392365295589 39.05223605619875 H 0.0 **** 0.06
17473 H 20.408915256585914 97.88938109517395 37.52702634964865 H 0.0 **** 0.06
17474 H 20.854745004493537 96.89801319535368 38.93720972543551 H 0.0 **** 0.06
17475 H 22.102724774661198 97.82584462798306 38.0699756339194 H 0.0 **** 0.06
17476 C 70.79922919294606 42.65241667128325 12.286873158282845 C 0.0 **** -0.24
17477 H 70.65965556815883 42.622274187854316 13.367657237317957 H 0.0 **** 0.06
17478 H 69.83269413763708 42.78047298185368 11.798975455432753 H 0.0 **** 0.06
17479 H 71.25368997190387 41.71855439198882 11.953463032359707 H 0.0 **** 0.06
17480 H 71.45140831169473 43.48597779050809 12.027534023635809 H 0.0 **** 0.06
17481 C 47.058481826371036 113.60600319026722 22.717342239104156 C 0.0 **** -0.24
17482 H 46.8428549975788 114.18851271262159 23.613058319844036 H 0.0 **** 0.06
17483 H 47.048833012299156 114.26257763653314 21.847427613242026 H 0.0 **** 0.06
17484 H 46.30125791380587 112.83113817527426 22.596856817686493 H 0.0 **** 0.06
17485 H 48.04083402641095 113.14316243647977 22.813468109185692 H 0.0 **** 0.06
17486 C 25.15186503502551 40.33746359751012 78.71978025623602 C 0.0 **** -0.24
17487 H 25.9936502548766 40.515912695176894 78.05147263797721 H 0.0 **** 0.06
17488 H 24.70677031915207 39.36791144182641 78.49359902232138 H 0.0 **** 0.06
17489 H 24.406865485361408 41.12114629327664 78.58331174246095 H 0.0 **** 0.06
17490 H 25.500879987557994 40.34423904553614 79.75299286774052 H 0.0 **** 0.06
17491 C 88.51673927737633 8.64607560113771 101.8451877366748 C 0.0 **** -0.24
17492 H 88.48033061603337 8.717792870111495 100.7581391571077 H 0.0 **** 0.06
17493 H 88.14601140573595 7.670373066308898 102.15747752359272 H 0.0 **** 0.06
17494 H 87.89528801295361 9.42847856327245 102.28183353532813 H 0.0 **** 0.06
17495 H 89.54587585614257 8.769575870269222 102.18344384577574 H 0.0 **** 0.06
17496 C 108.6085125791023 0.39704591326406735 24.640308891916675 C 0.0 **** -0.24
17497 H 108.2477354080907 -0.3941585618261385 25.297434354397865 H 0.0 **** 0.06
17498 H 107.8597833506825 0.6040395563561649 23.875666005000568 H 0.0 **** 0.06
17499 H 109.5366196804739 0.07978308489880703 24.165512052899885 H 0.0 **** 0.06
17500 H 108.78984469386478 1.2997829326211576 25.224720716287152 H 0.0 **** 0.06
17501 C 43.9497942488242 114.78628445885718 23.51855262240275 C 0.0 **** -0.24
17502 H 43.80414001518135 113.72793983203724 23.30261268925426 H 0.0 **** 0.06
17503 H 42.995823431904796 115.23438566196131 23.800147511203477 H 0.0 **** 0.06
17504 H 44.33924214321308 115.2872461755799 22.633057740996605 H 0.0 **** 0.06
17505 H 44.658525840940314 114.89452954028442 24.339747555457052 H 0.0 **** 0.06
17506 C 81.68475408981294 110.47830627235581 40.52680772569869 C 0.0 **** -0.24
17507 H 82.69767636994362 110.83025969145906 40.72535969589782 H 0.0 **** 0.06
17508 H 81.21817350546905 110.1694775748822 41.46221029150294 H 0.0 **** 0.06
17509 H 81.72276716368975 109.63220672600417 39.84129544749666 H 0.0 **** 0.06
17510 H 81.10329891200831 111.28313462632772 40.07876232942192 H 0.0 **** 0.06
17511 C 40.521909132412475 85.08782434855556 46.12367047339956 C 0.0 **** -0.24
17512 H 39.4388266189423 85.05226474018497 46.2418709990564 H 0.0 **** 0.06
17513 H 40.99225877468709 84.49043495427759 46.90454990170548 H 0.0 **** 0.06
17514 H 40.86168540155961 86.1205670205411 46.20007868268311 H 0.0 **** 0.06
17515 H 40.79280153172823 84.68812258329135 45.14625070740243 H 0.0 **** 0.06
17516 C 92.05190968776569 46.622769854234605 49.97500375759219 C 0.0 **** -0.24
17517 H 92.9965106368578 46.95334980026135 49.54449656309403 H 0.0 **** 0.06
17518 H 92.09454927799268 45.54961184018762 50.16299140026587 H 0.0 **** 0.06
17519 H 91.24053376255202 46.83754648802241 49.27907939826294 H 0.0 **** 0.06
17520 H 91.87572628300956 47.14924814734397 50.91306323773 H 0.0 **** 0.06
17521 C 94.89188741145179 48.93189078655112 2.873065784038303 C 0.0 **** -0.24
17522 H 94.39442911399652 49.28548557247379 3.7764469702073455 H 0.0 **** 0.06
17523 H 94.73705407125169 49.64986848041923 2.0674739164858806 H 0.0 **** 0.06
17524 H 94.4758432244287 47.9665791282811 2.5835139846085724 H 0.0 **** 0.06
17525 H 95.95888743563589 48.82385141923041 3.0650578398244903 H 0.0 **** 0.06
17526 C 99.77374884664175 97.87788265805517 56.00171735292802 C 0.0 **** -0.24
17527 H 99.52543575331131 98.92952096367671 55.85328507621767 H 0.0 **** 0.06
17528 H 98.85621571291523 97.30016904824848 56.11261591924603 H 0.0 **** 0.06
17529 H 100.38121215463369 97.77271069176402 56.901361079078505 H 0.0 **** 0.06
17530 H 100.33288063001322 97.5121856879201 55.141368671342356 H 0.0 **** 0.06
17531 C 16.494016024246104 14.147196664439658 0.7002375180085298 C 0.0 **** -0.24
17532 H 17.504295433960607 14.463510170834152 0.44226697645160584 H 0.0 **** 0.06
17533 H 16.532243264986594 13.473392556843567 1.5569710540014405 H 0.0 **** 0.06
17534 H 16.047351060798096 13.630211930321657 -0.14968708214630233 H 0.0 **** 0.06
17535 H 15.892549853576693 15.020839229134502 0.9518059887234269 H 0.0 **** 0.06
17536 C 94.09384831407198 49.58586147073612 49.00858636736346 C 0.0 **** -0.24
17537 H 94.44185986632866 48.630704147037875 48.61525950823634 H 0.0 **** 0.06
17538 H 94.93618605229165 50.27419099460491 49.088312544535604 H 0.0 **** 0.06
17539 H 93.65399999463068 49.43400968911527 49.99316492378104 H 0.0 **** 0.06
17540 H 93.34529038943629 50.004629819738426 48.336119519307424 H 0.0 **** 0.06
17541 C 42.42600638408226 45.89757734525588 57.58873584508041 C 0.0 **** -0.24
17542 H 43.18389467095996 46.423048781462796 57.00766555088728 H 0.0 **** 0.06
17543 H 42.011415015387286 45.08432565214406 56.993834848808376 H 0.0 **** 0.06
17544 H 41.630822088479846 46.592364540223286 57.85985811534539 H 0.0 **** 0.06
17545 H 42.87832014556939 45.49296710807084 58.49385757919703 H 0.0 **** 0.06
17546 C 72.15295145683038 93.3369205891781 112.07026907451892 C 0.0 **** -0.24
17547 H 71.46793047087709 93.43164671698912 111.22769398464285 H 0.0 **** 0.06
17548 H 71.74363746046981 93.86327819320923 112.93253370535307 H 0.0 **** 0.06
17549 H 73.11686434972657 93.76940696859441 111.8039347405848 H 0.0 **** 0.06
17550 H 72.28328440910954 92.28211566461758 112.31505172263738 H 0.0 **** 0.06
17551 C 38.84018251065544 93.33728548891116 61.65254773136035 C 0.0 **** -0.24
17552 H 39.407446854952475 93.18395353309961 62.57043172574358 H 0.0 **** 0.06
17553 H 39.45800415376361 93.07181700738118 60.795021966045915 H 0.0 **** 0.06
17554 H 38.545187915975056 94.38391582018988 61.577857008637686 H 0.0 **** 0.06
17555 H 37.94875551050032 92.70936684837363 61.66733672687547 H 0.0 **** 0.06
17556 C 109.03509642255398 29.313895992354134 69.42142381245336 C 0.0 **** -0.24
17557 H 108.5943597122828 28.938950546581793 70.3453814192761 H 0.0 **** 0.06
17558 H 110.11492513754759 29.406200996913952 69.54503369380382 H 0.0 **** 0.06
17559 H 108.6114425434906 30.290649748682 69.18729334918666 H 0.0 **** 0.06
17560 H 108.81946660852691 28.620115872765354 68.60934779945967 H 0.0 **** 0.06
17561 C 10.045890400379562 20.878233325294573 22.71540477508603 C 0.0 **** -0.24
17562 H 9.374067319703954 21.73664515153324 22.706106073893125 H 0.0 **** 0.06
17563 H 10.310991585438586 20.636034890201586 23.74480308383295 H 0.0 **** 0.06
17564 H 10.950006270669263 21.119100291448532 22.15503592676896 H 0.0 **** 0.06
17565 H 9.550233929074437 20.02340390772065 22.256630509143434 H 0.0 **** 0.06
17566 C 90.07286583925728 26.338441303632806 9.808671671915363 C 0.0 **** -0.24
17567 H 91.08680763699164 26.69803832709738 9.983043580939295 H 0.0 **** 0.06
17568 H 89.85073161812949 26.381253266448084 8.742725588494636 H 0.0 **** 0.06
17569 H 89.36731312970264 26.967063757608003 10.352127986718983 H 0.0 **** 0.06
17570 H 89.98662506348123 25.309787320086002 10.157379321629435 H 0.0 **** 0.06
17571 C 107.28138631373204 55.8089965765397 2.857067256563141 C 0.0 **** -0.24
17572 H 106.33344043550812 55.27408142303568 2.788978828406499 H 0.0 **** 0.06
17573 H 107.30302706033643 56.60589647843693 2.1140351138569713 H 0.0 **** 0.06
17574 H 108.1020934052487 55.116248079053264 2.672232383224994 H 0.0 **** 0.06
17575 H 107.38472830934478 56.23801759828382 3.85395741551676 H 0.0 **** 0.06
17576 C 97.00439381197478 60.30603597899477 107.22119954679343 C 0.0 **** -0.24
17577 H 96.81681717138889 60.93258035026108 106.3497176637365 H 0.0 **** 0.06
17578 H 98.06405374900513 60.346410613384506 107.47566633029729 H 0.0 **** 0.06
17579 H 96.72355733919443 59.27653147337071 106.99576662211123 H 0.0 **** 0.06
17580 H 96.414170354373 60.66752726013033 108.0627783284132 H 0.0 **** 0.06
17581 C 82.81041849758276 96.73460528154442 102.23606004532479 C 0.0 **** -0.24
17582 H 83.24805735915442 96.52373223619003 101.26038215511531 H 0.0 **** 0.06
17583 H 81.99737800948768 97.45157598867092 102.12283139454914 H 0.0 **** 0.06
17584 H 83.57342658022986 97.15170084829276 102.8934644388246 H 0.0 **** 0.06
17585 H 82.42427730953216 95.8119142308309 102.66833742348481 H 0.0 **** 0.06
17586 C 24.277817292336124 96.20429529283615 57.86451012994229 C 0.0 **** -0.24
17587 H 23.85458703404646 97.04923862504788 57.32140196558913 H 0.0 **** 0.06
17588 H 23.5470719008037 95.82986543872565 58.580337579881075 H 0.0 **** 0.06
17589 H 25.17525189135017 96.52651040119363 58.39400349143506 H 0.0 **** 0.06
17590 H 24.536326041768746 95.413854529637 57.160323961109896 H 0.0 **** 0.06
17591 C 27.921220617633793 105.46830862805822 67.5364839528441 C 0.0 **** -0.24
17592 H 27.373570716685094 104.93794431453117 66.75814418979832 H 0.0 **** 0.06
17593 H 27.93241403936827 104.86701851746577 68.4465452606199 H 0.0 **** 0.06
17594 H 27.434028932118053 106.42264267864243 67.73733058824027 H 0.0 **** 0.06
17595 H 28.94371471102977 105.64550483442278 67.20472374486224 H 0.0 **** 0.06
17596 C 116.65004639779693 102.6334323362259 63.76935994528905 C 0.0 **** -0.24
17597 H 116.01215491453698 102.4120032907474 64.62480321062213 H 0.0 **** 0.06
17598 H 116.24442755349875 103.48796924309198 63.22666512682401 H 0.0 **** 0.06
17599 H 116.68674928573147 101.76794509746873 63.10864424249318 H 0.0 **** 0.06
17600 H 117.65575942037556 102.86869044045301 64.11804537152665 H 0.0 **** 0.06
17601 C 49.677607139641566 86.52180305343356 3.848006211503824 C 0.0 **** -0.24
17602 H 49.85940705821061 85.69366532198853 3.1632374642539336 H 0.0 **** 0.06
17603 H 50.627461262937445 86.87556074197565 4.250055045171592 H 0.0 **** 0.06
17604 H 49.040091872326926 86.1842338579686 4.664633324706658 H 0.0 **** 0.06
17605 H 49.183698989640575 87.333256036357 3.3132619925223334 H 0.0 **** 0.06
17606 C 2.1665089929351655 114.24784377878689 9.309223002729482 C 0.0 **** -0.24
17607 H 1.5148364796523452 115.01112610407085 8.885238882363865 H 0.0 **** 0.06
17608 H 1.8356353321120977 114.0083068693437 10.319803657768773 H 0.0 **** 0.06
17609 H 3.1897689593728558 114.62144555001203 9.340692021687545 H 0.0 **** 0.06
17610 H 2.126045902797154 113.35149256598731 8.690185183297416 H 0.0 **** 0.06
17611 C 84.50377792081477 76.59591979542085 15.927446062585489 C 0.0 **** -0.24
17612 H 85.56139437595428 76.68032789263748 16.1751923337182 H 0.0 **** 0.06
17613 H 84.39482811517865 76.41599334569074 14.858070560484975 H 0.0 **** 0.06
17614 H 83.99384683421474 77.52109776063995 16.195267954862345 H 0.0 **** 0.06
17615 H 84.06597152679632 75.76538933723955 16.482427474960616 H 0.0 **** 0.06
17616 C 87.20970330099985 74.41105590430587 87.8212941467927 C 0.0 **** -0.24
17617 H 87.27332173612032 75.17139779249459 88.59968188705798 H 0.0 **** 0.06
17618 H 87.82265150265758 73.55386656143048 88.10078212590193 H 0.0 **** 0.06
17619 H 87.56881689582585 74.8236465004604 86.87891367866041 H 0.0 **** 0.06
17620 H 86.17291285800752 74.09469016541448 87.70763739926667 H 0.0 **** 0.06
17621 C 50.364070790022794 99.06239693617678 98.06762189271589 C 0.0 **** -0.24
17622 H 50.00478152676952 100.08882422511857 97.99957215758135 H 0.0 **** 0.06
17623 H 51.44936245451476 99.04953459136138 97.97131464886488 H 0.0 **** 0.06
17624 H 49.92056787004953 98.4692231087385 97.26845890091079 H 0.0 **** 0.06
17625 H 50.07961020527164 98.64253069111516 99.03251260573006 H 0.0 **** 0.06
17626 C 56.41611207110707 110.30609244788984 49.24418246247345 C 0.0 **** -0.24
17627 H 56.32013726784529 109.22443127005289 49.14906931261237 H 0.0 **** 0.06
17628 H 57.331339871056265 110.63335027290931 48.75006809775758 H 0.0 **** 0.06
17629 H 56.454788199154 110.575904958839 50.299320797731184 H 0.0 **** 0.06
17630 H 55.55847147651733 110.78970505209189 48.77655116637669 H 0.0 **** 0.06
17631 C 69.31984088948764 86.83111212216949 102.80364194718348 C 0.0 **** -0.24
17632 H 69.86380231372053 87.77346316468868 102.87585767448633 H 0.0 **** 0.06
17633 H 68.28245091185389 87.03173971199254 102.53394167632726 H 0.0 **** 0.06
17634 H 69.35408618908994 86.31722214617332 103.76314796213015 H 0.0 **** 0.06
17635 H 69.77948579146769 86.2051947037769 102.0390260343691 H 0.0 **** 0.06
17636 C 89.74355977566941 2.857469709497707 103.6381848819496 C 0.0 **** -0.24
17637 H 90.68844846760871 2.3856788252346632 103.37304878515238 H 0.0 **** 0.06
17638 H 89.79016846125853 3.921217194539338 103.40364805122582 H 0.0 **** 0.06
17639 H 89.55886917773915 2.728137193808408 104.70498059753595 H 0.0 **** 0.06
17640 H 88.93511103778752 2.394874473806283 103.07161283555018 H 0.0 **** 0.06
17641 C 73.41271233420846 113.94161474616077 19.48161477352872 C 0.0 **** -0.24
17642 H 73.9096370811553 113.94626461730014 18.51166233967112 H 0.0 **** 0.06
17643 H 72.87129652807067 113.00386257682231 19.607473335076236 H 0.0 **** 0.06
17644 H 72.71309703253615 114.775793334921 19.53487905682269 H 0.0 **** 0.06
17645 H 74.15715592087838 114.04112828779367 20.271710581040082 H 0.0 **** 0.06
17646 C 26.709245168682543 99.16013789604818 51.350168715729524 C 0.0 **** -0.24
17647 H 26.72678620356072 98.31855221308706 50.65809257336991 H 0.0 **** 0.06
17648 H 27.638097051764646 99.72277369702385 51.26164951543785 H 0.0 **** 0.06
17649 H 26.604429575173896 98.78966556374371 52.3704449409842 H 0.0 **** 0.06
17650 H 25.866115498531087 99.80874413171779 51.111449413052 H 0.0 **** 0.06
17651 C 80.11776540074709 14.035955484991348 70.69564382342361 C 0.0 **** -0.24
17652 H 80.55849213642398 15.027168325213864 70.60024735187807 H 0.0 **** 0.06
17653 H 80.63041617470907 13.484390662676901 71.48347120095076 H 0.0 **** 0.06
17654 H 80.2201763442738 13.500191760025302 69.75164179368716 H 0.0 **** 0.06
17655 H 79.06068592720624 14.130452294321884 70.94637071419538 H 0.0 **** 0.06
17656 C 33.462039803848256 52.174644502909906 48.82811599796415 C 0.0 **** -0.24
17657 H 33.269803388045034 52.848146605926345 49.663101403149476 H 0.0 **** 0.06
17658 H 32.65842189236622 52.2645643951591 48.09683132872713 H 0.0 **** 0.06
17659 H 33.508011965075355 51.14835353607376 49.193362519312785 H 0.0 **** 0.06
17660 H 34.41046448075758 52.437440935285316 48.36113617930546 H 0.0 **** 0.06
17661 C 7.191915743825547 53.552388026536505 88.74077366796996 C 0.0 **** -0.24
17662 H 7.244843437470308 53.82594189176257 89.79535681283701 H 0.0 **** 0.06
17663 H 6.541352443074146 52.68476072109894 88.62327932744776 H 0.0 **** 0.06
17664 H 8.190531605160857 53.310081604189406 88.37803341010232 H 0.0 **** 0.06
17665 H 6.789350597759494 54.388788396439395 88.16981459300465 H 0.0 **** 0.06
17666 C 44.39911788395574 83.6998252494443 34.32685359577698 C 0.0 **** -0.24
17667 H 44.72938162800483 82.78451556373824 33.83579901441715 H 0.0 **** 0.06
17668 H 45.136237004525384 84.48653992767538 34.1630456452973 H 0.0 **** 0.06
17669 H 44.292637398874916 83.51895090046813 35.396862005227575 H 0.0 **** 0.06
17670 H 43.4394565931004 84.00854543277362 33.913682253520165 H 0.0 **** 0.06
17671 C 50.73393896504896 29.074901658292347 60.64370419988734 C 0.0 **** -0.24
17672 H 51.00705584257571 28.578846178861177 59.71275433194839 H 0.0 **** 0.06
17673 H 51.309510457863276 29.995456113875136 60.74718171816255 H 0.0 **** 0.06
17674 H 50.951080233941624 28.414835271420543 61.484365658637046 H 0.0 **** 0.06
17675 H 49.67000985007755 29.310175655160485 60.63281779418318 H 0.0 **** 0.06
17676 C 94.80428614019735 38.09554435957176 44.570169350248506 C 0.0 **** -0.24
17677 H 94.7693048924695 37.011843229814076 44.68846910570264 H 0.0 **** 0.06
17678 H 95.2881789698854 38.34126136624903 43.624181227420706 H 0.0 **** 0.06
17679 H 95.37082578612757 38.532063795143046 45.39155480740146 H 0.0 **** 0.06
17680 H 93.79070831070584 38.49474064879823 44.57438767203749 H 0.0 **** 0.06
17681 C 104.02376363004228 54.4367443670547 69.6987454805739 C 0.0 **** -0.24
17682 H 104.31429743756306 53.648773333164286 69.0031167071813 H 0.0 **** 0.06
17683 H 104.80482229452457 55.19609510937059 69.73390753820877 H 0.0 **** 0.06
17684 H 103.88465810008438 54.01055610040606 70.69179569355796 H 0.0 **** 0.06
17685 H 103.09046814717084 54.889419718147906 69.36272735315413 H 0.0 **** 0.06
17686 C 68.14237860684145 57.377481751942184 19.53909832568101 C 0.0 **** -0.24
17687 H 67.22412817738132 57.96427070453643 19.519162643422362 H 0.0 **** 0.06
17688 H 68.9999493182172 58.04769348336373 19.609641689959346 H 0.0 **** 0.06
17689 H 68.21662742629519 56.78665902974015 18.62570945037575 H 0.0 **** 0.06
17690 H 68.1298359573521 56.71190162953812 20.402647048571765 H 0.0 **** 0.06
17691 C 90.60843020076499 97.16061372603897 44.014502162398685 C 0.0 **** -0.24
17692 H 90.21293621177347 97.91900281505593 44.69108263467777 H 0.0 **** 0.06
17693 H 89.790465690166 96.5374179455867 43.652259591165205 H 0.0 **** 0.06
17694 H 91.32995492367718 96.54110717341581 44.54529417345432 H 0.0 **** 0.06
17695 H 91.09681865309716 97.64674880208898 43.170825748672144 H 0.0 **** 0.06
17696 C 3.403136805602614 14.792857166395635 82.97377319107937 C 0.0 **** -0.24
17697 H 3.175754333194746 15.106009683792138 83.99286852234184 H 0.0 **** 0.06
17698 H 2.5468309188050853 14.263156546573327 82.55725667820184 H 0.0 **** 0.06
17699 H 4.271287569602762 14.133420783467159 82.98211026912799 H 0.0 **** 0.06
17700 H 3.6203229415917235 15.670636747805844 82.36460671468109 H 0.0 **** 0.06
17701 C 22.948143896280378 63.177345201129015 96.68286944876402 C 0.0 **** -0.24
17702 H 22.485469326467904 64.16031049925004 96.59085275133143 H 0.0 **** 0.06
17703 H 22.640299407017913 62.55155689754173 95.84520404037562 H 0.0 **** 0.06
17704 H 22.633643875141374 62.714045726878766 97.61804798992773 H 0.0 **** 0.06
17705 H 24.032722631107895 63.28436364187189 96.67743139440057 H 0.0 **** 0.06
17706 C 61.773784615212236 70.34028255936721 110.96093032404256 C 0.0 **** -0.24
17707 H 61.38525523896132 70.49350050206772 109.95387531877736 H 0.0 **** 0.06
17708 H 61.19011274444398 70.92855434167495 111.66876717469587 H 0.0 **** 0.06
17709 H 62.81687577423776 70.6551883950466 110.99938486693337 H 0.0 **** 0.06
17710 H 61.70372806631582 69.28368581639745 111.22018887520288 H 0.0 **** 0.06
17711 C 6.619378315092533 38.73343934278233 35.18108960042309 C 0.0 **** -0.24
17712 H 7.5846383044817856 38.666951755682646 34.680367071740534 H 0.0 **** 0.06
17713 H 6.2920118381371 39.77325568310653 35.20047454399531 H 0.0 **** 0.06
17714 H 6.712151452568591 38.36213389257682 36.20147234756422 H 0.0 **** 0.06
17715 H 5.887771564533182 38.132350099356756 34.63998431829998 H 0.0 **** 0.06
17716 C 8.319826285032843 52.10505246392673 34.51814729600994 C 0.0 **** -0.24
17717 H 8.387345659326673 52.66705984503882 33.586620908929945 H 0.0 **** 0.06
17718 H 8.263677709472748 52.79893696196614 35.35767828913788 H 0.0 **** 0.06
17719 H 9.202209940887368 51.47435257366251 34.62668440994571 H 0.0 **** 0.06
17720 H 7.4262741689080976 51.48065831731595 34.502173524444856 H 0.0 **** 0.06
17721 C 31.790301727517544 111.47296115394258 30.61744542682564 C 0.0 **** -0.24
17722 H 31.412349698982354 110.60281806535812 31.15451977812947 H 0.0 **** 0.06
17723 H 31.57067542201702 112.37506207630071 31.187589024077283 H 0.0 **** 0.06
17724 H 31.31024076720678 111.53308772988119 29.640674808141398 H 0.0 **** 0.06
17725 H 32.868163187714714 111.37774120787005 30.487343986607556 H 0.0 **** 0.06
17726 C 44.174467652885795 21.800834521610227 88.75622041347032 C 0.0 **** -0.24
17727 H 44.64327020923099 20.897260686628897 88.36567964138075 H 0.0 **** 0.06
17728 H 43.75300332245371 22.375798160094405 87.93217966666344 H 0.0 **** 0.06
17729 H 44.92222712730447 22.400984075337988 89.27501697526478 H 0.0 **** 0.06
17730 H 43.381595360358375 21.526311827775316 89.45162055551586 H 0.0 **** 0.06
17731 C 7.657670187648421 15.316898368179295 115.9104067367402 C 0.0 **** -0.24
17732 H 8.280504247252168 14.53245816121455 116.34019140160777 H 0.0 **** 0.06
17733 H 6.835465700689156 15.540840306453063 116.58995831743138 H 0.0 **** 0.06
17734 H 7.257005500913181 14.979496292932822 114.95396422448195 H 0.0 **** 0.06
17735 H 8.25773231231608 16.214241696041057 115.75668290580795 H 0.0 **** 0.06
17736 C 71.63609960579004 111.58929610398951 28.040202799176427 C 0.0 **** -0.24
17737 H 70.67360568867645 111.94703781586685 27.676838247968703 H 0.0 **** 0.06
17738 H 72.39064143270011 112.36306772745979 27.8936328176884 H 0.0 **** 0.06
17739 H 71.92297017376379 110.69362769087331 27.488140293916956 H 0.0 **** 0.06
17740 H 71.55835216575616 111.35274734104479 29.101135198909162 H 0.0 **** 0.06
17741 C 7.457348617123472 109.33584686944226 13.08627833946882 C 0.0 **** -0.24
17742 H 7.611447690175169 110.00380049065343 12.23870709435711 H 0.0 **** 0.06
17743 H 7.838483866544948 108.34430228363627 12.841944906501439 H 0.0 **** 0.06
17744 H 6.391316628892184 109.27176763571589 13.309151272042456 H 0.0 **** 0.06
17745 H 7.9864889335715645 109.72536630597153 13.956664330071234 H 0.0 **** 0.06
17746 C 95.7713978705437 81.60695803246387 114.29868370875268 C 0.0 **** -0.24
17747 H 96.73924970238866 82.07994107254123 114.13390987822818 H 0.0 **** 0.06
17748 H 95.01324538639875 82.37427856222743 114.45269194652363 H 0.0 **** 0.06
17749 H 95.82491888015929 80.96665644868483 115.17958097586092 H 0.0 **** 0.06
17750 H 95.50890726962177 81.004861290988 113.42883443155446 H 0.0 **** 0.06
17751 C 15.795143478792085 111.0242191072249 100.67376025807906 C 0.0 **** -0.24
17752 H 15.771072970139429 111.00779516765442 101.76310428083335 H 0.0 **** 0.06
17753 H 16.64647681638276 111.61747661062883 100.33879951388823 H 0.0 **** 0.06
17754 H 14.87220623469726 111.4672184797256 100.29798101821979 H 0.0 **** 0.06
17755 H 15.889947777220868 110.00618123588463 100.29657783461667 H 0.0 **** 0.06
17756 C 69.65421780412095 79.4730258334751 96.97732457428424 C 0.0 **** -0.24
17757 H 70.54912559677547 79.82390682011084 96.46188084673778 H 0.0 **** 0.06
17758 H 69.43866649122782 78.44814717467233 96.67487301131692 H 0.0 **** 0.06
17759 H 68.81136522600889 80.11402626349121 96.71718884184486 H 0.0 **** 0.06
17760 H 69.81900916959503 79.50792773588967 98.054521988391 H 0.0 **** 0.06
17761 C 64.13918259903227 107.203591703743 29.82337682240467 C 0.0 **** -0.24
17762 H 64.95648410474595 106.51670920104112 29.6022766664492 H 0.0 **** 0.06
17763 H 63.51248194515457 106.7804576521122 30.607867983907852 H 0.0 **** 0.06
17764 H 63.542967983272085 107.3589590628836 28.924711349238123 H 0.0 **** 0.06
17765 H 64.54749321053302 108.15769891211346 30.157453880127548 H 0.0 **** 0.06
17766 C 7.321769063409306 90.03531601765997 73.21099814568356 C 0.0 **** -0.24
17767 H 6.464757520352578 90.11209837250388 73.88014779682842 H 0.0 **** 0.06
17768 H 7.265224066376959 89.0974553989092 72.65679078459291 H 0.0 **** 0.06
17769 H 8.241202205514782 90.05818445610333 73.79497180164341 H 0.0 **** 0.06
17770 H 7.312893088042131 90.87219745090601 72.51257187074324 H 0.0 **** 0.06
17771 C 77.97163035045119 95.67445755494978 71.50636308923919 C 0.0 **** -0.24
17772 H 77.27067339070567 95.18895445397311 70.82651993424454 H 0.0 **** 0.06
17773 H 78.5591796845703 96.41092328458672 70.95712757892372 H 0.0 **** 0.06
17774 H 78.63585425789108 94.92707217877285 71.93734002392745 H 0.0 **** 0.06
17775 H 77.41785750513907 96.1719456038247 72.30300723007156 H 0.0 **** 0.06
17776 C 61.74322897744974 84.68565963226189 39.01900016978203 C 0.0 **** -0.24
17777 H 62.01827777058265 85.7399577342025 39.032971613277795 H 0.0 **** 0.06
17778 H 61.31245355695318 84.43585579862645 38.048364157571335 H 0.0 **** 0.06
17779 H 61.012145280206475 84.48980328552403 39.802558344012844 H 0.0 **** 0.06
17780 H 62.63109463661886 84.07665291172918 39.18992697539774 H 0.0 **** 0.06
17781 C 89.75865019024354 37.56293678983158 31.931106930219087 C 0.0 **** -0.24
17782 H 88.99225376786086 37.717330013938096 32.69013379381643 H 0.0 **** 0.06
17783 H 89.88571106183062 38.476969754564976 31.35131229104823 H 0.0 **** 0.06
17784 H 89.45579983545065 36.75123416453869 31.269601764866422 H 0.0 **** 0.06
17785 H 90.70152594459339 37.304644626639146 32.41441129640761 H 0.0 **** 0.06
17786 C 81.21993855474756 83.49873306845134 54.69983826594455 C 0.0 **** -0.24
17787 H 82.08885272801348 84.02740508607627 54.30718872717546 H 0.0 **** 0.06
17788 H 80.43012556007932 83.48998088972851 53.948092660867474 H 0.0 **** 0.06
17789 H 80.86301537072586 84.00330912786444 55.59697110793991 H 0.0 **** 0.06
17790 H 81.4990669859589 82.47438778599721 54.94658029513499 H 0.0 **** 0.06
17791 C 76.50143211869565 20.266118921052886 21.72170240718455 C 0.0 **** -0.24
17792 H 77.2469437750461 20.780961883098158 22.32754120715535 H 0.0 **** 0.06
17793 H 75.7781198951647 19.777245956209295 22.374543304284003 H 0.0 **** 0.06
17794 H 76.99287907666783 19.518423548367718 21.09877776027244 H 0.0 **** 0.06
17795 H 75.98820990959896 20.988282918293006 21.086739657097638 H 0.0 **** 0.06
17796 C 19.35676028271223 14.779430863160655 7.264989797863876 C 0.0 **** -0.24
17797 H 19.58562310629216 13.844215943561494 6.754344704361685 H 0.0 **** 0.06
17798 H 19.019592386556866 14.566188095570055 8.2804168147631 H 0.0 **** 0.06
17799 H 18.57028685471559 15.305944393773075 6.723869066739624 H 0.0 **** 0.06
17800 H 20.2509606777883 15.401538588039273 7.302608901089684 H 0.0 **** 0.06
17801 C 47.68327333770715 6.9666555661088125 42.11961916533494 C 0.0 **** -0.24
17802 H 46.599033737324376 7.076065185393347 42.1507417861248 H 0.0 **** 0.06
17803 H 48.07889536198984 6.994547817825904 43.13532082169445 H 0.0 **** 0.06
17804 H 48.11391527548301 7.780998308285788 41.53849621450195 H 0.0 **** 0.06
17805 H 47.938523890652334 6.013726398732459 41.65613699426456 H 0.0 **** 0.06
17806 C 33.7402289984355 90.29052505237959 110.49855633004574 C 0.0 **** -0.24
17807 H 33.89767960360729 90.24938100239063 111.57621073982335 H 0.0 **** 0.06
17808 H 32.760865122313476 89.87657681648597 110.25919090269974 H 0.0 **** 0.06
17809 H 34.5132574298932 89.71005975771706 109.99513638027582 H 0.0 **** 0.06
17810 H 33.78841190883594 91.32678214754483 110.16355300887312 H 0.0 **** 0.06
17811 C 52.341642445288755 0.20902557728325633 79.68980201432444 C 0.0 **** -0.24
17812 H 52.52146646704141 1.2837694964035222 79.72443478046716 H 0.0 **** 0.06
17813 H 51.282644206177906 0.023918405021021272 79.50956705426779 H 0.0 **** 0.06
17814 H 52.63370733222558 -0.23832923565711894 80.64035942669378 H 0.0 **** 0.06
17815 H 52.9301826110686 -0.23096376942930874 78.8856817944025 H 0.0 **** 0.06
17816 C 34.576730881848135 5.228604214000187 46.49871221750632 C 0.0 **** -0.24
17817 H 35.0360679706545 5.406933721894891 45.52631743718186 H 0.0 **** 0.06
17818 H 34.55668752728488 4.156866612971058 46.70019530980275 H 0.0 **** 0.06
17819 H 33.55894696429539 5.61760474574316 46.496476044604066 H 0.0 **** 0.06
17820 H 35.15766384332272 5.733171859509172 47.27194702245461 H 0.0 **** 0.06
17821 C 88.05181386999854 69.67818273832313 103.2908207630272 C 0.0 **** -0.24
17822 H 87.34978288740135 70.15891582575091 102.60989731767796 H 0.0 **** 0.06
17823 H 87.93702153547227 70.10206312417716 104.288824646894 H 0.0 **** 0.06
17824 H 89.07028321969597 69.84495551344708 102.93996096214008 H 0.0 **** 0.06
17825 H 87.84912861558058 68.60764114519176 103.32505475991252 H 0.0 **** 0.06
17826 C 38.93926808306307 7.510934325558281 48.278964686750015 C 0.0 **** -0.24
17827 H 39.86696786129602 8.081474160807517 48.338463254885625 H 0.0 **** 0.06
17828 H 38.7867290080587 7.172519421038217 47.253620446013514 H 0.0 **** 0.06
17829 H 38.10414571816344 8.142271307970645 48.58180754644559 H 0.0 **** 0.06
17830 H 39.00205543091204 6.647373279809642 48.94096440575427 H 0.0 **** 0.06
17831 C 76.22893997203823 79.08855492287472 12.447829949865962 C 0.0 **** -0.24
17832 H 76.35216071184135 78.13201669943118 12.955540334660924 H 0.0 **** 0.06
17833 H 75.1697790289499 79.26341686814726 12.256513409685937 H 0.0 **** 0.06
17834 H 76.7712784400631 79.07054093418978 11.502864865191839 H 0.0 **** 0.06
17835 H 76.62177452857878 79.88719829865278 13.076962948770301 H 0.0 **** 0.06
17836 C 42.41632823476601 30.651305781262124 97.57238725619382 C 0.0 **** -0.24
17837 H 43.47736192698403 30.891685840955006 97.63653923186249 H 0.0 **** 0.06
17838 H 41.97005117566721 31.196578968210645 96.7399735470101 H 0.0 **** 0.06
17839 H 41.921826519477975 30.935640684983127 98.5005473784482 H 0.0 **** 0.06
17840 H 42.296448356496995 29.579864204667558 97.40970543735855 H 0.0 **** 0.06
17841 C 37.55260546496959 6.439217576148792 95.19528160715038 C 0.0 **** -0.24
17842 H 37.4955646234658 7.5046583153722395 95.419515810012 H 0.0 **** 0.06
17843 H 37.98678752424923 6.300181654631842 94.20431106040769 H 0.0 **** 0.06
17844 H 36.550405943005934 6.009996746656469 95.21678102903195 H 0.0 **** 0.06
17845 H 38.1765591042642 5.943984130988895 95.93852463238954 H 0.0 **** 0.06
17846 C 21.896416310384865 116.87357326360171 87.070509874251 C 0.0 **** -0.24
17847 H 21.245593687982165 117.11374611243349 86.22980809479373 H 0.0 **** 0.06
17848 H 22.383079368772997 117.7823747413539 87.42524010932425 H 0.0 **** 0.06
17849 H 22.652425023018537 116.1569627322573 86.75122210609902 H 0.0 **** 0.06
17850 H 21.30346448168831 116.44048239956241 87.87627474066494 H 0.0 **** 0.06
17851 C 0.47153903717839185 65.97834362802087 109.75892680024276 C 0.0 **** -0.24
17852 H 0.5673175905394707 65.22541602228654 110.54220334520939 H 0.0 **** 0.06
17853 H 1.2307779789176791 65.80472671845149 108.9948711086069 H 0.0 **** 0.06
17854 H 0.6092975337640478 66.96930329243457 110.18980964234972 H 0.0 **** 0.06
17855 H -0.5188604441908709 65.91010450304935 109.31013866385297 H 0.0 **** 0.06
17856 C 83.07775879710044 11.204051367615627 9.578246341586102 C 0.0 **** -0.24
17857 H 84.15937913141997 11.338601286833526 9.582755931700945 H 0.0 **** 0.06
17858 H 82.65048554606602 11.729346895563097 8.723582784401774 H 0.0 **** 0.06
17859 H 82.65767095278815 11.60674800184744 10.499741417458079 H 0.0 **** 0.06
17860 H 82.84349955812766 10.141509286218863 9.506905232783819 H 0.0 **** 0.06
17861 C 35.50243575962108 13.062880125762284 85.42834823285125 C 0.0 **** -0.24
17862 H 34.515621605281396 13.064706336561883 85.89314298399648 H 0.0 **** 0.06
17863 H 36.11372700095701 13.84909354779408 85.8718017968414 H 0.0 **** 0.06
17864 H 35.39923997946958 13.24226340797427 84.35761581618056 H 0.0 **** 0.06
17865 H 35.978029328488304 12.095816621520857 85.59115638321555 H 0.0 **** 0.06
17866 C 26.08190430791356 76.08228232798993 50.72750995769171 C 0.0 **** -0.24
17867 H 26.350839522532937 77.13292521112899 50.838802269246536 H 0.0 **** 0.06
17868 H 26.231076900356925 75.56716996060996 51.676580223288006 H 0.0 **** 0.06
17869 H 26.710472990111413 75.62579552796197 49.96330792541227 H 0.0 **** 0.06
17870 H 25.036177232628063 76.00477847763105 50.43220244387023 H 0.0 **** 0.06
17871 C 115.22199960085658 30.20162566614286 1.6434156794531702 C 0.0 **** -0.24
17872 H 115.80389910287559 31.10955059898447 1.8007809597577875 H 0.0 **** 0.06
17873 H 114.50908905363633 30.364151103626142 0.8341983512754041 H 0.0 **** 0.06
17874 H 114.68382252871399 29.952700210922586 2.557730775488963 H 0.0 **** 0.06
17875 H 115.89017602140257 29.382843932981558 1.3802803594408033 H 0.0 **** 0.06
17876 C 72.50024077276916 74.89275614586597 12.78196075289597 C 0.0 **** -0.24
17877 H 72.17187956058788 75.82904780532692 13.232696134305417 H 0.0 **** 0.06
17878 H 73.01475822509329 75.10158138896793 11.844530584673237 H 0.0 **** 0.06
17879 H 71.63361268598803 74.25973960167289 12.587833316657097 H 0.0 **** 0.06
17880 H 73.17851799329958 74.38014721758412 13.463744913701326 H 0.0 **** 0.06
17881 C 46.585279891741834 107.41966000584301 83.45912334825994 C 0.0 **** -0.24
17882 H 46.43304346999946 106.74291835894235 84.30003677750375 H 0.0 **** 0.06
17883 H 45.638752128719375 107.56568036037814 82.93623237646659 H 0.0 **** 0.06
17884 H 47.31571235448848 106.98999517125193 82.77465711043499 H 0.0 **** 0.06
17885 H 46.94974697625412 108.37841122561005 83.82674728457243 H 0.0 **** 0.06
17886 C 62.128646694809355 52.450239968933914 71.7625310773521 C 0.0 **** -0.24
17887 H 61.7953575108745 53.48182603738698 71.64815413036837 H 0.0 **** 0.06
17888 H 61.58781741136058 51.81367221606118 71.06241913068294 H 0.0 **** 0.06
17889 H 61.93342476535452 52.117617415818756 72.78248904752644 H 0.0 **** 0.06
17890 H 63.19772449993703 52.389318186521905 71.55872294068104 H 0.0 **** 0.06
17891 C 14.257417692214329 47.81450886353616 84.39095897065553 C 0.0 **** -0.24
17892 H 14.551434496457176 47.02737868721198 85.08427469370204 H 0.0 **** 0.06
17893 H 15.112501393637544 48.461440908408576 84.19198552763129 H 0.0 **** 0.06
17894 H 13.450624857772453 48.40185515899583 84.82943955612654 H 0.0 **** 0.06
17895 H 13.915446206483374 47.367683614139025 83.4568008813664 H 0.0 **** 0.06
17896 C 96.84499709532096 62.189418395357535 86.05394520865886 C 0.0 **** -0.24
17897 H 97.66662449420792 62.02297482518671 86.75049852055884 H 0.0 **** 0.06
17898 H 97.2319400329875 62.21451715666802 85.03480054887311 H 0.0 **** 0.06
17899 H 96.36218124230612 63.13968568864834 86.28219397488385 H 0.0 **** 0.06
17900 H 96.11981165473586 61.38148955573459 86.14745774379708 H 0.0 **** 0.06
17901 C 102.4087594787832 98.60091628575924 10.23689921841924 C 0.0 **** -0.24
17902 H 101.32988724441702 98.71391724611962 10.348362736834243 H 0.0 **** 0.06
17903 H 102.90936320366455 99.02832140991464 11.107032814437808 H 0.0 **** 0.06
17904 H 102.73745696676713 99.12050975125348 9.336253214441953 H 0.0 **** 0.06
17905 H 102.65749666837539 97.54323392159034 10.158169823126109 H 0.0 **** 0.06
17906 C 59.44592681550836 3.1796087922661513 69.559591048975 C 0.0 **** -0.24
17907 H 59.97126212664131 2.827535717796195 70.44907129400963 H 0.0 **** 0.06
17908 H 60.06376270120347 3.0011057703420363 68.6799917023705 H 0.0 **** 0.06
17909 H 59.24766497095635 4.246881795660158 69.65435973050955 H 0.0 **** 0.06
17910 H 58.503298282840376 2.6421939154628262 69.45897677191823 H 0.0 **** 0.06
17911 C 10.714820896035945 26.950538148468013 115.17207343701291 C 0.0 **** -0.24
17912 H 10.887478061112489 27.231029474428823 116.21071901656184 H 0.0 **** 0.06
17913 H 11.23275330534031 27.650309729860595 114.51552917030672 H 0.0 **** 0.06
17914 H 9.646148845996777 26.977752582036402 114.96054339025271 H 0.0 **** 0.06
17915 H 11.093514265113171 25.942891647973823 115.00023792752532 H 0.0 **** 0.06
17916 C 42.37232282401655 78.00160199371223 99.93648738768624 C 0.0 **** -0.24
17917 H 41.713952430993686 78.84708497514427 99.74012687838274 H 0.0 **** 0.06
17918 H 43.27854451397124 78.35404437394493 100.4305463630298 H 0.0 **** 0.06
17919 H 42.6361663581512 77.52008123879594 98.99431119189904 H 0.0 **** 0.06
17920 H 41.86232149372623 77.28541030102588 100.58067033209014 H 0.0 **** 0.06
17921 C 7.284777690023773 97.20276558049699 14.92101834685144 C 0.0 **** -0.24
17922 H 7.814884965393588 97.60879926070285 15.78209351835693 H 0.0 **** 0.06
17923 H 6.630272615088586 97.96737095303138 14.502524258081422 H 0.0 **** 0.06
17924 H 6.689497731791363 96.34465296479237 15.231714386825331 H 0.0 **** 0.06
17925 H 8.006459867040022 96.88893691977879 14.165670692166856 H 0.0 **** 0.06
17926 C 95.76636916310454 15.594879433324053 98.29123758388636 C 0.0 **** -0.24
17927 H 95.35059846051243 14.74135729028822 98.8253762920217 H 0.0 **** 0.06
17928 H 96.78500736261515 15.776299360602167 98.63454300893952 H 0.0 **** 0.06
17929 H 95.15549035456121 16.476567486251525 98.48379354935057 H 0.0 **** 0.06
17930 H 95.77557423150296 15.38519428474413 97.22198928249756 H 0.0 **** 0.06
17931 C 7.8612535832762624 79.99220674953912 84.48105073109133 C 0.0 **** -0.24
17932 H 8.197287200715408 80.86934202855034 83.92768674367875 H 0.0 **** 0.06
17933 H 7.389883980506173 80.30939118809843 85.41118851115738 H 0.0 **** 0.06
17934 H 8.716047046371958 79.35516711615966 84.70542126362739 H 0.0 **** 0.06
17935 H 7.14182773090204 79.43673217810709 83.87904654675913 H 0.0 **** 0.06
17936 C 49.04068238228488 76.9487046648519 59.655679750958164 C 0.0 **** -0.24
17937 H 48.76111927686101 75.9647839773969 60.03023018657469 H 0.0 **** 0.06
17938 H 49.41192335075344 77.55956423193561 60.47912941953083 H 0.0 **** 0.06
17939 H 48.16897422613174 77.42903369285125 59.21022320037192 H 0.0 **** 0.06
17940 H 49.82120797009407 76.84248535870267 58.90184961514907 H 0.0 **** 0.06
17941 C 70.92941015550701 11.62483572587547 98.3113389542537 C 0.0 **** -0.24
17942 H 71.18488770873745 12.597417881198794 97.89000918392702 H 0.0 **** 0.06
17943 H 70.47936983336496 11.00136816170874 97.53850617902583 H 0.0 **** 0.06
17944 H 70.2222042849267 11.758382596654258 99.12979582187648 H 0.0 **** 0.06
17945 H 71.83332481668322 11.14328283942092 98.68663719791351 H 0.0 **** 0.06
17946 C 23.77408765768223 79.77204731738652 27.628258750472078 C 0.0 **** -0.24
17947 H 23.80336752777066 80.80810302269751 27.9639442679509 H 0.0 **** 0.06
17948 H 23.22783982118557 79.71075892593296 26.686517460561696 H 0.0 **** 0.06
17949 H 23.273943234220496 79.16083883955542 28.380334806409223 H 0.0 **** 0.06
17950 H 24.791351953558888 79.40935552970882 27.482713030223152 H 0.0 **** 0.06
17951 C 96.6979706721759 115.77950641448172 79.60352972650975 C 0.0 **** -0.24
17952 H 95.87970367923515 115.1540984615905 79.96084696049678 H 0.0 **** 0.06
17953 H 97.4546042309224 115.86743167637388 80.3835992184641 H 0.0 **** 0.06
17954 H 96.31501653633342 116.76983484378871 79.35502346286339 H 0.0 **** 0.06
17955 H 97.1397237648502 115.32717012174436 78.71548993675384 H 0.0 **** 0.06
17956 C 8.251906026390827 56.630783798459106 33.19957901005036 C 0.0 **** -0.24
17957 H 8.869231430469085 55.78190144393534 33.49309501935706 H 0.0 **** 0.06
17958 H 8.811276912065338 57.55502657805516 33.34872035138336 H 0.0 **** 0.06
17959 H 7.3479970668784915 56.65007961899141 33.80828404884836 H 0.0 **** 0.06
17960 H 7.980346376438106 56.53586044417409 32.147567335482904 H 0.0 **** 0.06
17961 C 1.1571734057602612 91.22202782046321 67.01262556843088 C 0.0 **** -0.24
17962 H 2.0022734517799012 91.90272684092778 67.11853290327656 H 0.0 **** 0.06
17963 H 0.39684224416288316 91.68172359707103 66.38099996506392 H 0.0 **** 0.06
17964 H 0.7357891699224908 91.01145980543058 67.99554265638182 H 0.0 **** 0.06
17965 H 1.4958785690295553 90.29177611499045 66.5560993702048 H 0.0 **** 0.06
17966 C 95.3618443166921 3.695412762485148 0.5320229856383349 C 0.0 **** -0.24
17967 H 95.48913595479644 2.6362112019361916 0.30576531713754207 H 0.0 **** 0.06
17968 H 94.82232926695093 3.802287528600516 1.4731068643377512 H 0.0 **** 0.06
17969 H 94.79468617628538 4.170917076481487 -0.2687334766890501 H 0.0 **** 0.06
17970 H 96.33956960681621 4.1683965989877265 0.6158265272837298 H 0.0 **** 0.06
17971 C 108.09509947367957 93.08024171912456 71.25473408769528 C 0.0 **** -0.24
17972 H 108.21697504984223 92.26185354685941 70.54462018284121 H 0.0 **** 0.06
17973 H 108.36246917635529 92.73726819249191 72.25436461319475 H 0.0 **** 0.06
17974 H 107.05748640443397 93.41363727928018 71.24907087246271 H 0.0 **** 0.06
17975 H 108.74422420234163 93.9078946391491 70.9688000017913 H 0.0 **** 0.06
17976 C 91.78023471787819 22.84919381201763 61.55910861540963 C 0.0 **** -0.24
17977 H 92.33038608449809 22.364964355829898 60.75154007491835 H 0.0 **** 0.06
17978 H 91.03635054853999 23.52466987519574 61.13649412484091 H 0.0 **** 0.06
17979 H 92.47330371488653 23.41508884020618 62.1822408621681 H 0.0 **** 0.06
17980 H 91.28205244818855 22.091453956969588 62.16463925983663 H 0.0 **** 0.06
17981 C 36.54035738598153 53.59166531985092 66.27635913053896 C 0.0 **** -0.24
17982 H 36.55088008314676 54.58492285630325 66.72505089788936 H 0.0 **** 0.06
17983 H 35.50959859653092 53.26996581852012 66.13134791560395 H 0.0 **** 0.06
17984 H 37.05153029370994 52.889648344640705 66.93525138549123 H 0.0 **** 0.06
17985 H 37.05107827401928 53.622935956277374 65.31301599696815 H 0.0 **** 0.06
17986 C 13.636623953339523 2.891484233859522 58.319378165649766 C 0.0 **** -0.24
17987 H 13.824709731757736 1.9087441695466563 57.88695212832479 H 0.0 **** 0.06
17988 H 13.341422088733594 3.5846757776092684 57.53183267528914 H 0.0 **** 0.06
17989 H 14.542778577448559 3.2555462091694682 58.804073196478896 H 0.0 **** 0.06
17990 H 12.835606580025313 2.8161373826310623 59.055833650267886 H 0.0 **** 0.06
17991 C 25.15338237218903 27.3364470763662 22.669136241562143 C 0.0 **** -0.24
17992 H 25.133965906454577 28.280936394775495 22.125752883265164 H 0.0 **** 0.06
17993 H 26.12889221728628 27.206635291209068 23.137782175722975 H 0.0 **** 0.06
17994 H 24.970546515071206 26.515097158810363 21.976336179152128 H 0.0 **** 0.06
17995 H 24.37852947278411 27.342448232859027 23.436740065265695 H 0.0 **** 0.06
17996 C 79.94701837375888 41.40703566084906 7.038744080331128 C 0.0 **** -0.24
17997 H 79.27334450011853 41.969158223683536 6.392230130169674 H 0.0 **** 0.06
17998 H 80.0518886731069 41.92438217895912 7.9928920902570155 H 0.0 **** 0.06
17999 H 80.9235211833884 41.32493696614884 6.56102380604022 H 0.0 **** 0.06
18000 H 79.5404215762577 40.410398179153674 7.208332701793754 H 0.0 **** 0.06
18001 C 82.84903478691598 67.23369481211114 53.08054434073438 C 0.0 **** -0.24
18002 H 82.22327976320909 67.55016873654671 52.24626174221572 H 0.0 **** 0.06
18003 H 83.26166847739708 66.24652270469517 52.87157722141103 H 0.0 **** 0.06
18004 H 82.24809570235229 67.19091883893918 53.98948496706231 H 0.0 **** 0.06
18005 H 83.66163974805158 67.94701390862284 53.2157795953612 H 0.0 **** 0.06
18006 C 67.16882272375773 78.00036180632375 0.49714783094819737 C 0.0 **** -0.24
18007 H 68.23128175608187 77.92908700284758 0.7275566219237337 H 0.0 **** 0.06
18008 H 66.6798991622311 77.05786497404384 0.7437001443208793 H 0.0 **** 0.06
18009 H 67.04120114893584 78.2090836897246 -0.5652501660216078 H 0.0 **** 0.06
18010 H 66.72314254093445 78.80479011674572 1.0809849224071488 H 0.0 **** 0.06
18011 C 110.59116851837061 81.56829144625718 14.955187623654268 C 0.0 **** -0.24
18012 H 111.67894037490997 81.6390894605407 14.987104192816645 H 0.0 **** 0.06
18013 H 110.29760223423384 80.52049847487999 14.87929035588391 H 0.0 **** 0.06
18014 H 110.21817438702436 82.11392778527485 14.088065388702773 H 0.0 **** 0.06
18015 H 110.17184007512778 81.99854666284247 15.864002018385804 H 0.0 **** 0.06
18016 C 112.31128843196176 118.40822334276471 48.86143658631774 C 0.0 **** -0.24
18017 H 111.45344784131488 117.73640173967374 48.863379082865066 H 0.0 **** 0.06
18018 H 112.04342348548593 119.33756164399814 48.357941492093744 H 0.0 **** 0.06
18019 H 113.14210008427614 117.93626991992262 48.33542648534208 H 0.0 **** 0.06
18020 H 112.6070014488793 118.62231986676156 49.88853739252798 H 0.0 **** 0.06
18021 C 70.98211627060039 44.5500578376525 25.617299146873897 C 0.0 **** -0.24
18022 H 71.04370796039746 44.878821171572056 26.654954066758116 H 0.0 **** 0.06
18023 H 71.9729163029516 44.591338927434904 25.164447341216338 H 0.0 **** 0.06
18024 H 70.30419025584649 45.20274018904247 25.06867491665207 H 0.0 **** 0.06
18025 H 70.60886239816159 43.52667007423777 25.58314384924701 H 0.0 **** 0.06
18026 C 16.295766036402455 34.36792964665398 71.34868985862062 C 0.0 **** -0.24
18027 H 16.1163656523551 35.14659091165416 70.60615042607671 H 0.0 **** 0.06
18028 H 15.919791033555555 33.41584939166299 70.97329993953358 H 0.0 **** 0.06
18029 H 15.780660513116416 34.623656038517794 72.27394647549391 H 0.0 **** 0.06
18030 H 17.365848670718975 34.287553715102575 71.53851452360541 H 0.0 **** 0.06
18031 C 28.81330644473583 118.65387743652813 102.9952898861311 C 0.0 **** -0.24
18032 H 28.686624226355008 119.72341133155733 103.16396249702834 H 0.0 **** 0.06
18033 H 28.12400129743034 118.1011089198233 103.63520868749254 H 0.0 **** 0.06
18034 H 29.837495597466898 118.36711487736491 103.23226739459224 H 0.0 **** 0.06
18035 H 28.603264166732956 118.42344743134187 101.95091695785436 H 0.0 **** 0.06
18036 C 19.73050876620337 15.639482627232837 55.505142328555166 C 0.0 **** -0.24
18037 H 19.619767436892033 15.343194852607027 56.54871960908281 H 0.0 **** 0.06
18038 H 20.556701629150382 15.088264647646753 55.05657501494619 H 0.0 **** 0.06
18039 H 19.93605033241988 16.70907922489829 55.451931320611834 H 0.0 **** 0.06
18040 H 18.80912282338295 15.420028219625337 54.96531707790939 H 0.0 **** 0.06
18041 C 86.20528133259305 18.64982458650627 70.67102319245137 C 0.0 **** -0.24
18042 H 85.70323268683904 17.689294574216206 70.55562468604381 H 0.0 **** 0.06
18043 H 86.94865688801795 18.767635935696376 69.88206255452815 H 0.0 **** 0.06
18044 H 86.69785829678173 18.68871960231894 71.64242921575857 H 0.0 **** 0.06
18045 H 85.47257956452853 19.453424945362656 70.6032655385107 H 0.0 **** 0.06
18046 C 101.43012828427572 109.92713318372074 16.331575210587005 C 0.0 **** -0.24
18047 H 100.4736993002158 110.2847703768383 15.949351658178756 H 0.0 **** 0.06
18048 H 101.50494767994422 108.85126187652966 16.170185562274355 H 0.0 **** 0.06
18049 H 101.49916447780637 110.14094812806991 17.39771623615178 H 0.0 **** 0.06
18050 H 102.24180899089575 110.43085548071615 15.805929995769816 H 0.0 **** 0.06
18051 C 95.00113108820926 15.09532211598778 82.93056605423516 C 0.0 **** -0.24
18052 H 94.40054925108367 15.430761050064866 82.08491260157587 H 0.0 **** 0.06
18053 H 95.9355504797862 14.669532247007623 82.56491190136222 H 0.0 **** 0.06
18054 H 94.45043676907372 14.338813398866172 83.48858382253212 H 0.0 **** 0.06
18055 H 95.21629640157158 15.942058244305425 83.58138116697171 H 0.0 **** 0.06
18056 C 70.68972817514253 83.55489824626972 112.49861655102853 C 0.0 **** -0.24
18057 H 70.36756897856631 84.40752600351337 111.8997785070265 H 0.0 **** 0.06
18058 H 71.68446264317873 83.7506160937894 112.90069305049576 H 0.0 **** 0.06
18059 H 70.71934173554132 82.66231258824271 111.874427159564 H 0.0 **** 0.06
18060 H 69.98938779466607 83.40201399511548 113.31900685782091 H 0.0 **** 0.06
18061 C 32.98500936428161 25.91904762661521 53.56556216976688 C 0.0 **** -0.24
18062 H 32.86693724134196 26.926079959955757 53.16628734473569 H 0.0 **** 0.06
18063 H 32.483987720638936 25.207400566690808 52.908564146209756 H 0.0 **** 0.06
18064 H 32.541946611779736 25.86914327407034 54.56092974359174 H 0.0 **** 0.06
18065 H 34.04522101173424 25.67368810893413 53.62691796626831 H 0.0 **** 0.06
18066 C 58.41840741240992 25.094472983339188 12.572754505809797 C 0.0 **** -0.24
18067 H 57.53861173889368 24.496051706857486 12.335094772444933 H 0.0 **** 0.06
18068 H 59.31865590988133 24.522793880519572 12.34252344278255 H 0.0 **** 0.06
18069 H 58.409820138934435 25.347249776842233 13.632821342255795 H 0.0 **** 0.06
18070 H 58.40714186633042 26.009032441134423 11.980570747489566 H 0.0 **** 0.06
18071 C 92.14116001300144 9.004143785397673 98.41621073387623 C 0.0 **** -0.24
18072 H 91.27817918897293 9.613485972905124 98.15011922500466 H 0.0 **** 0.06
18073 H 92.73951590407427 9.527451059085365 99.16112631075723 H 0.0 **** 0.06
18074 H 92.74419111394917 8.822118950612875 97.52687165530418 H 0.0 **** 0.06
18075 H 91.80135136649048 8.052805328745862 98.82513709936168 H 0.0 **** 0.06
18076 C 87.44561645377286 90.58401831256356 22.342796038524398 C 0.0 **** -0.24
18077 H 87.75240535165165 89.53954904075377 22.291677988620847 H 0.0 **** 0.06
18078 H 87.44639842726522 91.01234885688106 21.340273257252477 H 0.0 **** 0.06
18079 H 88.14096453303648 91.13618081240298 22.975439083632693 H 0.0 **** 0.06
18080 H 86.44211837943433 90.6473025744678 22.76422493675352 H 0.0 **** 0.06
18081 C 29.705477355701134 2.390706973873563 112.67572328136808 C 0.0 **** -0.24
18082 H 29.72052708123954 3.245037905022457 111.99919485087175 H 0.0 **** 0.06
18083 H 30.670369680029808 1.884847364475064 112.64211638283959 H 0.0 **** 0.06
18084 H 28.920375038249688 1.6994665642377242 112.36911013296866 H 0.0 **** 0.06
18085 H 29.510431837456622 2.735581424527794 113.69123666723576 H 0.0 **** 0.06
18086 C 72.23843004046319 17.209223947052067 95.1255512598513 C 0.0 **** -0.24
18087 H 71.95861126593735 18.236236726791418 95.36032727451493 H 0.0 **** 0.06
18088 H 71.4989994625139 16.526697566753228 95.54431458396238 H 0.0 **** 0.06
18089 H 73.21771423131634 16.9925210528516 95.55346358132539 H 0.0 **** 0.06
18090 H 72.27938224703519 17.082836323329985 94.04382133223277 H 0.0 **** 0.06
18091 C 53.59756560322219 79.94643083568488 65.44038370178112 C 0.0 **** -0.24
18092 H 54.1195728632957 80.27587269083196 64.54187601254642 H 0.0 **** 0.06
18093 H 54.09587371421219 80.35651578725648 66.31990063802772 H 0.0 **** 0.06
18094 H 53.61150056030408 78.85726465698187 65.48992630883168 H 0.0 **** 0.06
18095 H 52.56620181666341 80.29678364041092 65.41023112007758 H 0.0 **** 0.06
18096 C 16.992308069370477 48.01658731532106 27.139432894760333 C 0.0 **** -0.24
18097 H 17.267389659405296 48.03201344904943 26.085116202930976 H 0.0 **** 0.06
18098 H 17.582432402482983 48.75728490328504 27.680054745324654 H 0.0 **** 0.06
18099 H 17.184781255254514 47.02662496311339 27.551026247686096 H 0.0 **** 0.06
18100 H 15.9318866106183 48.25233632641056 27.24062297387819 H 0.0 **** 0.06
18101 C 21.48060559804162 59.248482249650856 108.01728392397916 C 0.0 **** -0.24
18102 H 22.12641897461839 58.37081746062491 108.03596941403455 H 0.0 **** 0.06
18103 H 21.335300856317815 59.61522324803121 109.03332237415336 H 0.0 **** 0.06
18104 H 20.5155285683 58.97985356259776 107.5857487327153 H 0.0 **** 0.06
18105 H 21.943969922161898 60.028604318672926 107.41229904804104 H 0.0 **** 0.06
18106 C 42.542716872245705 42.61397011644769 79.30770850268993 C 0.0 **** -0.24
18107 H 41.67666932320844 42.305942559929264 78.72195750453972 H 0.0 **** 0.06
18108 H 42.21523051214302 43.24544526655595 80.13435864726125 H 0.0 **** 0.06
18109 H 43.23027852012984 43.172324855046355 78.67338172303602 H 0.0 **** 0.06
18110 H 43.046647625777894 41.73179846415553 79.70197048696815 H 0.0 **** 0.06
18111 C 84.6042702753818 85.08126056213544 55.5116307435193 C 0.0 **** -0.24
18112 H 85.56749893815135 85.56557048955708 55.35091667432699 H 0.0 **** 0.06
18113 H 84.09509021344081 85.5565150886467 56.35025544356083 H 0.0 **** 0.06
18114 H 84.76109514326862 84.02553173974317 55.7330764232179 H 0.0 **** 0.06
18115 H 83.99498916925978 85.17760067633745 54.61293296959266 H 0.0 **** 0.06
18116 C 42.423532328866116 70.77154741249979 39.68934222396272 C 0.0 **** -0.24
18117 H 42.39792032770865 71.72995875626637 40.20585472842409 H 0.0 **** 0.06
18118 H 41.4307376550168 70.54263364651544 39.30055197608563 H 0.0 **** 0.06
18119 H 42.72936614707254 69.99074952092181 40.38666781208133 H 0.0 **** 0.06
18120 H 43.13480439457061 70.82092119496824 38.86506688875429 H 0.0 **** 0.06
18121 C 60.58490003127548 66.97860502384617 65.26764349581345 C 0.0 **** -0.24
18122 H 60.213526936917674 67.55482267400924 64.42003873543425 H 0.0 **** 0.06
18123 H 61.656873981037705 67.14175871071365 65.37695621669243 H 0.0 **** 0.06
18124 H 60.39235254920908 65.91917187302167 65.09807509494564 H 0.0 **** 0.06
18125 H 60.07400109577833 67.29938444179686 66.17612711135467 H 0.0 **** 0.06
18126 C 66.57614807150694 79.5981113691719 48.61444590234254 C 0.0 **** -0.24
18127 H 65.90115299909195 78.91996174748843 49.136530484177456 H 0.0 **** 0.06
18128 H 66.3425765220245 80.62629800635298 48.889185937822276 H 0.0 **** 0.06
18129 H 66.45547918846577 79.47269935433386 47.53791885639072 H 0.0 **** 0.06
18130 H 67.60509528823346 79.37071361644115 48.8930396096971 H 0.0 **** 0.06
18131 C 113.34547312297497 69.29348385792196 105.76688553183354 C 0.0 **** -0.24
18132 H 113.17855669727084 70.35603886991368 105.94400507199904 H 0.0 **** 0.06
18133 H 113.16493588675672 68.73914097510678 106.68789630628157 H 0.0 **** 0.06
18134 H 114.37454652795316 69.13687390302061 105.44342483725364 H 0.0 **** 0.06
18135 H 112.6628868945275 68.94378205183321 104.99154152353302 H 0.0 **** 0.06
18136 C 24.74766326310248 76.94955819976252 23.323534285005167 C 0.0 **** -0.24
18137 H 24.83760219208824 77.98036718816209 22.982630610001877 H 0.0 **** 0.06
18138 H 24.471130090686756 76.31095781792183 22.484312291886283 H 0.0 **** 0.06
18139 H 23.98072916877294 76.88737351331307 24.095979600542023 H 0.0 **** 0.06
18140 H 25.702630340346275 76.61842597422583 23.733602568661695 H 0.0 **** 0.06
18141 C 92.34700519721716 74.1701400470941 32.64645083379202 C 0.0 **** -0.24
18142 H 91.75641770877593 73.39218911536261 33.131251194767884 H 0.0 **** 0.06
18143 H 91.77628625693248 75.09861904966144 32.624219930670364 H 0.0 **** 0.06
18144 H 92.58321737310516 73.86394603391003 31.62749716124773 H 0.0 **** 0.06
18145 H 93.27119017422655 74.3238313926312 33.2033589546684 H 0.0 **** 0.06
18146 C 8.238572322049958 108.99526754986303 39.72582233345635 C 0.0 **** -0.24
18147 H 8.473485845201392 108.50919198434488 38.778598080846734 H 0.0 **** 0.06
18148 H 8.313032145484343 108.26882600807176 40.53523076429238 H 0.0 **** 0.06
18149 H 7.224952708733124 109.39380009618807 39.68620362763369 H 0.0 **** 0.06
18150 H 8.942877598510545 109.80879417084228 39.90085120934174 H 0.0 **** 0.06
18151 C 78.01260157447177 89.78560853759095 10.75550043832439 C 0.0 **** -0.24
18152 H 78.37674879623364 89.68081909138849 11.777513912631719 H 0.0 **** 0.06
18153 H 77.4544989564946 88.89139198382577 10.475282878070601 H 0.0 **** 0.06
18154 H 78.85817701824692 89.91348763255377 10.080613336441445 H 0.0 **** 0.06
18155 H 77.36002838015344 90.65719095346188 10.689964286629817 H 0.0 **** 0.06
18156 C 14.202906851848642 108.04415088059866 82.27541072474219 C 0.0 **** -0.24
18157 H 13.889549259718724 107.00579202274571 82.38426144130676 H 0.0 **** 0.06
18158 H 13.557612058908138 108.54374225887929 81.55299904094471 H 0.0 **** 0.06
18159 H 15.23501755386382 108.07727518335096 81.92523805389288 H 0.0 **** 0.06
18160 H 14.129244382062787 108.54882051974164 83.23924734130372 H 0.0 **** 0.06
18161 C 64.42338663223092 2.723875927850699 42.758692786227954 C 0.0 **** -0.24
18162 H 65.25855701902984 2.4583466492407666 42.10940449619204 H 0.0 **** 0.06
18163 H 63.62093695609793 1.9956883154558653 42.63346503037289 H 0.0 **** 0.06
18164 H 64.05895688428325 3.7157056659510346 42.49386035833882 H 0.0 **** 0.06
18165 H 64.75662951251078 2.723904522093463 43.79656019491006 H 0.0 **** 0.06
18166 C 77.59490433753368 115.26642795539288 63.35026727406213 C 0.0 **** -0.24
18167 H 78.40355201439459 114.53662676130006 63.39523111289117 H 0.0 **** 0.06
18168 H 76.72991595515447 114.81992081452472 62.85934460336483 H 0.0 **** 0.06
18169 H 77.92426064551145 116.13824951787018 62.785881683425856 H 0.0 **** 0.06
18170 H 77.32325370251058 115.56951644920522 64.3616988825896 H 0.0 **** 0.06
18171 C 59.825429004905736 66.5148493127493 117.71286845249087 C 0.0 **** -0.24
18172 H 59.94565552193827 65.43357103425217 117.77546561758778 H 0.0 **** 0.06
18173 H 59.98696358494794 66.95581303867391 118.69661239902399 H 0.0 **** 0.06
18174 H 58.81634600367733 66.74877628070644 117.37076853903956 H 0.0 **** 0.06
18175 H 60.549982871504604 66.92058610622078 117.0076707157563 H 0.0 **** 0.06
18176 C 73.7924617413789 81.62766267715506 84.48533018582279 C 0.0 **** -0.24
18177 H 73.3781878608417 81.51264944399875 85.48643987859288 H 0.0 **** 0.06
18178 H 74.08718567786548 80.65165042671697 84.09868111021362 H 0.0 **** 0.06
18179 H 74.66456576907115 82.28072804798805 84.52581216243877 H 0.0 **** 0.06
18180 H 73.03993415288062 82.0667164304927 83.82949128550604 H 0.0 **** 0.06
18181 C 7.95167559324733 21.570957368100718 34.61761488892958 C 0.0 **** -0.24
18182 H 7.3713749644079485 21.175994874955535 35.451192329073336 H 0.0 **** 0.06
18183 H 7.744042385611465 20.988062918334244 33.72072357262877 H 0.0 **** 0.06
18184 H 9.01453820204091 21.50893656612646 34.85428374639466 H 0.0 **** 0.06
18185 H 7.677674053441933 22.61260625808056 34.44649682781454 H 0.0 **** 0.06
18186 C 11.677516473512739 83.70694876128869 117.89035105389621 C 0.0 **** -0.24
18187 H 11.529523702297723 83.6179837539184 116.8144389313564 H 0.0 **** 0.06
18188 H 10.934103766110397 84.38902177418322 118.30394453806507 H 0.0 **** 0.06
18189 H 12.67720719365613 84.09437298581383 118.08811993965473 H 0.0 **** 0.06
18190 H 11.569808028548877 82.72640301320723 118.35360958998719 H 0.0 **** 0.06
18191 C 114.95359673559255 55.067561440961555 14.941448647763508 C 0.0 **** -0.24
18192 H 114.15570890881699 55.742055319852 14.63133968159066 H 0.0 **** 0.06
18193 H 114.52998301225861 54.23886081157974 15.508004201425464 H 0.0 **** 0.06
18194 H 115.66509319502123 55.6089127954894 15.565039115446694 H 0.0 **** 0.06
18195 H 115.46525194472306 54.68113761544268 14.059230295752968 H 0.0 **** 0.06
18196 C 73.80117480406807 80.46529497344366 39.91397228586979 C 0.0 **** -0.24
18197 H 73.7571875713302 81.55166638754002 39.99762575984798 H 0.0 **** 0.06
18198 H 72.92074128509182 80.02967112025388 40.38652096494286 H 0.0 **** 0.06
18199 H 74.69980484684444 80.09929881369732 40.41053086648262 H 0.0 **** 0.06
18200 H 73.82684741453346 80.18277463142533 38.86111816779723 H 0.0 **** 0.06
18201 C 104.08778080106688 112.42570595882692 80.65378047229316 C 0.0 **** -0.24
18202 H 103.00477310762491 112.30094345702398 80.6270917739426 H 0.0 **** 0.06
18203 H 104.3304680534007 113.38730346298904 81.10538170358694 H 0.0 **** 0.06
18204 H 104.48210720125564 112.39032010048496 79.63849919721659 H 0.0 **** 0.06
18205 H 104.53080933598656 111.6238044365312 81.24410853171506 H 0.0 **** 0.06
18206 C 33.53947136016083 8.767408558235392 91.18509594439689 C 0.0 **** -0.24
18207 H 34.29477068595881 8.560666219091594 91.94416325301236 H 0.0 **** 0.06
18208 H 32.562833323922234 8.442612995173047 91.5460123388892 H 0.0 **** 0.06
18209 H 33.787254062418185 8.227454864430527 90.27107880773798 H 0.0 **** 0.06
18210 H 33.51458587324379 9.837380136553175 90.97964016310934 H 0.0 **** 0.06
18211 C 92.98510156306529 65.68911500986033 67.08891420187729 C 0.0 **** -0.24
18212 H 92.07594622825823 65.59644449932978 67.68266692730055 H 0.0 **** 0.06
18213 H 93.49699629108872 64.72723513927505 67.05336852391605 H 0.0 **** 0.06
18214 H 93.63992981475596 66.43399155924112 67.54248947733734 H 0.0 **** 0.06
18215 H 92.72727664021613 66.00148506013963 66.07631659858171 H 0.0 **** 0.06
18216 C 80.01720217516603 41.66714969696989 19.008234931347886 C 0.0 **** -0.24
18217 H 80.55014584072109 40.73248091680493 19.184632005879948 H 0.0 **** 0.06
18218 H 80.19638319820822 41.999523895911025 17.985815686922535 H 0.0 **** 0.06
18219 H 80.37530049278749 42.42483334553961 19.70470862889536 H 0.0 **** 0.06
18220 H 78.94893688933092 41.51008276009168 19.159317226290895 H 0.0 **** 0.06
18221 C 118.35999185557569 31.37672204898854 46.55985411371799 C 0.0 **** -0.24
18222 H 118.08785676296048 31.16443148834719 45.52552156121365 H 0.0 **** 0.06
18223 H 119.31772984951078 31.896659512885208 46.583060573404595 H 0.0 **** 0.06
18224 H 118.4405733310603 30.44071873039468 47.11310633164493 H 0.0 **** 0.06
18225 H 117.5939649808256 32.00410952452586 47.01548372924012 H 0.0 **** 0.06
18226 C 72.04475565457565 106.38540802296151 86.13763786612495 C 0.0 **** -0.24
18227 H 72.38744744061322 107.32377929893511 85.70114584910715 H 0.0 **** 0.06
18228 H 71.07777143622397 106.53853719806452 86.6155473515575 H 0.0 **** 0.06
18229 H 72.76744489346305 106.04618078096195 86.87937345093974 H 0.0 **** 0.06
18230 H 71.94855945109154 105.63398860358018 85.35383003006899 H 0.0 **** 0.06
18231 C 105.37503836311649 24.60965110769655 104.82078879074038 C 0.0 **** -0.24
18232 H 105.0678712533454 25.59455545800847 105.17264580978389 H 0.0 **** 0.06
18233 H 104.77541750369971 23.844120098447902 105.31354804753505 H 0.0 **** 0.06
18234 H 106.42882573186398 24.45268835016725 105.0547728628041 H 0.0 **** 0.06
18235 H 105.23022193366364 24.547719768547722 103.74226096265988 H 0.0 **** 0.06
18236 C 56.39743943611836 22.028528645185876 27.30061095195761 C 0.0 **** -0.24
18237 H 56.7993229670559 21.015234524434277 27.335371597933772 H 0.0 **** 0.06
18238 H 57.2146201251403 22.746070675310754 27.37533533520616 H 0.0 **** 0.06
18239 H 55.70729269046575 22.1747278570443 28.13086559033981 H 0.0 **** 0.06
18240 H 55.86926639523466 22.176389927365705 26.3585080562859 H 0.0 **** 0.06
18241 C 69.9104742236481 107.63722525098083 108.4802190958531 C 0.0 **** -0.24
18242 H 69.39861762652347 107.76294761012943 107.52648315682774 H 0.0 **** 0.06
18243 H 69.24002434303051 107.15560496498048 109.19153645663181 H 0.0 **** 0.06
18244 H 70.20714896121433 108.61341542786704 108.86451642837454 H 0.0 **** 0.06
18245 H 70.79622580772684 107.01786260206109 108.33799171891013 H 0.0 **** 0.06
18246 C 21.383788202410358 41.876436298125554 99.98547335014874 C 0.0 **** -0.24
18247 H 21.468826978675736 42.66362002329504 100.73473416526576 H 0.0 **** 0.06
18248 H 22.323766046473338 41.3266778272951 99.927759353255 H 0.0 **** 0.06
18249 H 21.16273977147597 42.32158848775964 99.01524775597906 H 0.0 **** 0.06
18250 H 20.580736931389026 41.19532315237524 100.26402856604085 H 0.0 **** 0.06
18251 C 118.35648844358228 85.741228071666 29.121870011406827 C 0.0 **** -0.24
18252 H 118.71930494682954 84.71631585208291 29.045806337229465 H 0.0 **** 0.06
18253 H 117.95064530905965 86.05443175179744 28.1592852366324 H 0.0 **** 0.06
18254 H 119.18054424617787 86.39812205473814 29.401313979793372 H 0.0 **** 0.06
18255 H 117.57553249723574 85.79469227350847 29.881488373409013 H 0.0 **** 0.06
18256 C 31.182312386456566 64.73083840837336 115.31775750487724 C 0.0 **** -0.24
18257 H 31.29494646363581 64.36311773913934 114.29788219864605 H 0.0 **** 0.06
18258 H 30.281386682821378 64.30403968642909 115.75902309643769 H 0.0 **** 0.06
18259 H 31.10190106714139 65.8180132217141 115.3049691482136 H 0.0 **** 0.06
18260 H 32.05070412081451 64.43736731329503 115.90628532323032 H 0.0 **** 0.06
18261 C 90.15971700731092 114.91468335884939 108.41732085535781 C 0.0 **** -0.24
18262 H 90.92979833683543 114.8217827594811 109.18260691159608 H 0.0 **** 0.06
18263 H 89.77673333825933 113.92642460946345 108.16404889443515 H 0.0 **** 0.06
18264 H 90.58513242889742 115.37934209465556 107.52746716849407 H 0.0 **** 0.06
18265 H 89.34546395548085 115.53341184513327 108.79525819179969 H 0.0 **** 0.06
18266 C 34.36506108495755 64.5710775034058 73.5360808886455 C 0.0 **** -0.24
18267 H 33.424114155169775 65.12153480357986 73.53105861692677 H 0.0 **** 0.06
18268 H 34.18592227704103 63.55108161701822 73.87637232095318 H 0.0 **** 0.06
18269 H 35.06886459319714 65.060756249453 74.20882072938795 H 0.0 **** 0.06
18270 H 34.77939591259004 64.55052801846469 72.52787110560669 H 0.0 **** 0.06
18271 C 81.20382552283257 31.959660409442222 59.43262255279799 C 0.0 **** -0.24
18272 H 82.20774778118658 32.12992733553229 59.042288199672406 H 0.0 **** 0.06
18273 H 81.19526129169739 32.1490477266436 60.5062731944329 H 0.0 **** 0.06
18274 H 80.91187672118727 30.926383376616315 59.24280662071292 H 0.0 **** 0.06
18275 H 80.50389513590574 32.632542472792665 58.938530784799674 H 0.0 **** 0.06
18276 C 98.02450454722936 15.556083514910352 20.10434126168859 C 0.0 **** -0.24
18277 H 98.66275738433222 15.014397327243575 19.4069927837414 H 0.0 **** 0.06
18278 H 97.00262763718888 15.57120172452667 19.72597958108433 H 0.0 **** 0.06
18279 H 98.3883483650651 16.578267540476798 20.210882765712114 H 0.0 **** 0.06
18280 H 98.0454767877365 15.061114164391302 21.075549843945524 H 0.0 **** 0.06
18281 C 5.841355527978635 77.08759598161583 109.20624113628108 C 0.0 **** -0.24
18282 H 5.789464991696846 78.0516386978747 109.7119333002732 H 0.0 **** 0.06
18283 H 4.90897176423114 76.9077830270569 108.67106043128734 H 0.0 **** 0.06
18284 H 5.995758811175278 76.29854106880174 109.94265853038875 H 0.0 **** 0.06
18285 H 6.6718003186324495 77.092521475262 108.50012516295561 H 0.0 **** 0.06
18286 C 25.29982443151721 118.44507347205118 10.689778637200696 C 0.0 **** -0.24
18287 H 26.377554987167557 118.59371111400833 10.618201363082555 H 0.0 **** 0.06
18288 H 24.790466074695928 119.18955921346405 10.07758206986298 H 0.0 **** 0.06
18289 H 24.986314883167182 118.55158353696753 11.727688974089578 H 0.0 **** 0.06
18290 H 25.046483941284635 117.44612082161677 10.333847735509469 H 0.0 **** 0.06
18291 C 99.07540359430217 23.302683223382644 113.17082605989896 C 0.0 **** -0.24
18292 H 98.60630380794419 23.67788029745398 114.0799729527078 H 0.0 **** 0.06
18293 H 98.61940639134642 23.781807534237316 112.30358958573211 H 0.0 **** 0.06
18294 H 98.93376057494905 22.224135846916 113.1070738883339 H 0.0 **** 0.06
18295 H 100.14153534765137 23.52905128678495 113.19246324889733 H 0.0 **** 0.06
18296 C 8.411018855480847 93.35541508803493 85.27834089149852 C 0.0 **** -0.24
18297 H 7.875480926414383 94.27784676151859 85.5055359036559 H 0.0 **** 0.06
18298 H 9.453736584446744 93.45828997181516 85.58038413687157 H 0.0 **** 0.06
18299 H 8.359242437108719 93.15989106420244 84.206869856857 H 0.0 **** 0.06
18300 H 7.954858075469389 92.52742713666802 85.82102760360962 H 0.0 **** 0.06
18301 C 100.6066355529839 94.15884119369781 65.17148134855657 C 0.0 **** -0.24
18302 H 100.68364707732024 93.13550605220368 65.53902452996746 H 0.0 **** 0.06
18303 H 100.58806766443121 94.15296315773244 64.08163812428742 H 0.0 **** 0.06
18304 H 101.46449190214213 94.73527843935855 65.51771126276842 H 0.0 **** 0.06
18305 H 99.68892500251872 94.6117110329071 65.54759151992201 H 0.0 **** 0.06
18306 C 41.31615904702852 20.564263752441693 39.763387763845515 C 0.0 **** -0.24
18307 H 40.95018596727499 20.166171271302535 40.70986420736597 H 0.0 **** 0.06
18308 H 41.07779059416998 19.867458958520047 38.96020839964723 H 0.0 **** 0.06
18309 H 42.39617737764624 20.699963611862675 39.81989899893 H 0.0 **** 0.06
18310 H 40.83904254123911 21.52427753353111 39.565385312197236 H 0.0 **** 0.06
18311 C 49.777050131951285 64.43201009262634 82.37903750519587 C 0.0 **** -0.24
18312 H 49.905865963984354 65.43001464318192 82.79795273213821 H 0.0 **** 0.06
18313 H 50.037214151361155 63.68609623644764 83.13064300210397 H 0.0 **** 0.06
18314 H 50.42774531443558 64.31547592369617 81.51160092886508 H 0.0 **** 0.06
18315 H 48.739321779285746 64.29603137674556 82.07577329786318 H 0.0 **** 0.06
18316 C 7.434241077027423 113.59978535500136 45.562781714564494 C 0.0 **** -0.24
18317 H 8.17574442773244 112.88234658414703 45.91527143174628 H 0.0 **** 0.06
18318 H 7.940047189545567 114.4600019570266 45.12408688565411 H 0.0 **** 0.06
18319 H 6.819523655844904 113.92759092032887 46.40115309909632 H 0.0 **** 0.06
18320 H 6.801214216614312 113.12701565474174 44.811631000817414 H 0.0 **** 0.06
18321 C 41.77061352564351 55.608646160683094 57.32370142567356 C 0.0 **** -0.24
18322 H 41.48722183700593 55.917411632970556 56.317217627689786 H 0.0 **** 0.06
18323 H 41.91684040840363 54.5287653685381 57.34469510853779 H 0.0 **** 0.06
18324 H 40.980029608564664 55.882403078448874 58.02258969091764 H 0.0 **** 0.06
18325 H 42.69661304729837 56.10735382829256 57.60995676413239 H 0.0 **** 0.06
18326 C 58.049420110962274 118.32642140574495 54.90257840934623 C 0.0 **** -0.24
18327 H 57.48282725008559 119.03209314532239 55.50880229686004 H 0.0 **** 0.06
18328 H 59.08806342128085 118.65460685049717 54.83878106885254 H 0.0 **** 0.06
18329 H 57.62056909371486 118.2803109665056 53.90141148142936 H 0.0 **** 0.06
18330 H 58.00845391270988 117.33875535055037 55.361238490242556 H 0.0 **** 0.06
18331 C 74.55264897545848 43.939613088323476 109.76574882073095 C 0.0 **** -0.24
18332 H 75.59092462743865 43.61222486037901 109.72143028115067 H 0.0 **** 0.06
18333 H 74.51592696918522 44.993553151845 110.04310502188899 H 0.0 **** 0.06
18334 H 74.01564989656879 43.34927253364501 110.5090661576907 H 0.0 **** 0.06
18335 H 74.0869730946172 43.8042386719155 108.78918783724166 H 0.0 **** 0.06
18336 C 114.36720859472763 28.848022548746258 58.61007974673682 C 0.0 **** -0.24
18337 H 113.6496816148917 28.133690446680873 58.20542150209514 H 0.0 **** 0.06
18338 H 114.79477225343695 28.45087411304064 59.53051713510907 H 0.0 **** 0.06
18339 H 113.86007490988669 29.78971285293352 58.821177806447686 H 0.0 **** 0.06
18340 H 115.16051209115292 29.016626309953608 57.88210592843803 H 0.0 **** 0.06
18341 C 15.132224099432392 78.61044723130834 51.52038757562906 C 0.0 **** -0.24
18342 H 15.366291388346593 78.86326492156718 52.55495528417066 H 0.0 **** 0.06
18343 H 14.2461365259677 77.97653980935914 51.49369041559305 H 0.0 **** 0.06
18344 H 15.973891998486653 78.0787506309807 51.07690203633078 H 0.0 **** 0.06
18345 H 14.943472412967147 79.52432833740684 50.957734350315334 H 0.0 **** 0.06
18346 C 28.911362098994005 67.3865865178283 77.84857217558513 C 0.0 **** -0.24
18347 H 28.986456589683712 66.33049334086638 78.10958490832815 H 0.0 **** 0.06
18348 H 29.44183676059771 67.98232175780558 78.5921606318918 H 0.0 **** 0.06
18349 H 27.86224000849819 67.68071060848604 77.82787439769177 H 0.0 **** 0.06
18350 H 29.35492969763891 67.5500397372677 76.86717250542969 H 0.0 **** 0.06
18351 C 33.32205031830861 63.210126175262246 13.179911578451794 C 0.0 **** -0.24
18352 H 32.247705349600125 63.06194175604912 13.072144157529095 H 0.0 **** 0.06
18353 H 33.51352713636038 64.2093168083905 13.57137075481836 H 0.0 **** 0.06
18354 H 33.80294374983572 63.10164502270226 12.20793838121989 H 0.0 **** 0.06
18355 H 33.722492865383884 62.46629726828411 13.869169098197148 H 0.0 **** 0.06
18356 C 20.48754711415961 21.621392737798374 27.096397422680468 C 0.0 **** -0.24
18357 H 21.468666650982584 21.428447519911714 26.6606494908375 H 0.0 **** 0.06
18358 H 20.15582949190582 20.741396986819694 27.64751308186186 H 0.0 **** 0.06
18359 H 19.77461998856063 21.842886387288644 26.30136967370055 H 0.0 **** 0.06
18360 H 20.55237029135398 22.47208037149366 27.77440261674866 H 0.0 **** 0.06
18361 C 1.131613138372927 88.74487561236862 104.44798611780152 C 0.0 **** -0.24
18362 H 0.8235208886387113 87.69930345898419 104.46346588804411 H 0.0 **** 0.06
18363 H 2.124578532533178 88.8382193575039 104.88864730935092 H 0.0 **** 0.06
18364 H 0.4219639312314598 89.34107747041347 105.02276607070633 H 0.0 **** 0.06
18365 H 1.1553170660662317 89.10063333654253 103.41839878277514 H 0.0 **** 0.06
18366 C 82.30072903038774 117.48167069620365 101.05600479962573 C 0.0 **** -0.24
18367 H 82.57739043878439 116.59054330288646 100.4914509249034 H 0.0 **** 0.06
18368 H 81.21824830212006 117.50844477963454 101.18263107967232 H 0.0 **** 0.06
18369 H 82.62574523487831 118.37022897557063 100.51415218163325 H 0.0 **** 0.06
18370 H 82.78116077109698 117.45552248555683 102.03376353682074 H 0.0 **** 0.06
18371 C 89.76434894266592 55.219583825311105 74.27551631201209 C 0.0 **** -0.24
18372 H 90.46297603200446 55.47151764441608 75.07354458685796 H 0.0 **** 0.06
18373 H 88.84098659840379 54.83548818668106 74.70906918122455 H 0.0 **** 0.06
18374 H 90.20698840564987 54.46095724054237 73.63087570230692 H 0.0 **** 0.06
18375 H 89.5463389653359 56.11259443176945 73.68880143933603 H 0.0 **** 0.06
18376 C 56.03126920021572 56.29058973701214 111.66012091424801 C 0.0 **** -0.24
18377 H 56.944733166284095 55.960139969776606 112.1540005248427 H 0.0 **** 0.06
18378 H 55.235685679607684 56.39248902962015 112.39785998427337 H 0.0 **** 0.06
18379 H 55.739259853121496 55.55708001401749 110.90811118094064 H 0.0 **** 0.06
18380 H 56.20657825640956 57.253388179448734 111.17948123637751 H 0.0 **** 0.06
18381 C 59.907971380630755 23.655732907747023 88.78497742110065 C 0.0 **** -0.24
18382 H 59.60105006919267 24.656020435299155 89.0925157332031 H 0.0 **** 0.06
18383 H 59.09116897836782 23.176392486598274 88.24574728274087 H 0.0 **** 0.06
18384 H 60.15771045078185 23.06622446474259 89.66703680170957 H 0.0 **** 0.06
18385 H 60.7806084865889 23.726995537448772 88.13598383988 H 0.0 **** 0.06
18386 C 90.10196568295243 66.72833628640092 42.85075944331944 C 0.0 **** -0.24
18387 H 90.64010640388238 66.25384469033065 42.02993249327518 H 0.0 **** 0.06
18388 H 89.69504428196817 65.96170763640714 43.509769326511595 H 0.0 **** 0.06
18389 H 89.28834664893307 67.3333777591809 42.44947088084615 H 0.0 **** 0.06
18390 H 90.78545852340488 67.36590535267692 43.41093508899011 H 0.0 **** 0.06
18391 C 64.82040784733641 55.6866858313727 39.38061775073095 C 0.0 **** -0.24
18392 H 65.03703859886889 56.63530341233229 38.88830541628727 H 0.0 **** 0.06
18393 H 65.18527270499914 55.72005604479784 40.40769062702611 H 0.0 **** 0.06
18394 H 65.31447443243428 54.87749463319756 38.84451955302711 H 0.0 **** 0.06
18395 H 63.74356977016612 55.517260751857236 39.38295831130432 H 0.0 **** 0.06
18396 C 76.15213132671389 107.863290531182 87.34729026495492 C 0.0 **** -0.24
18397 H 75.59699139227243 108.26516517631683 88.19514580558706 H 0.0 **** 0.06
18398 H 75.89677128222783 108.4242537571973 86.44751242730314 H 0.0 **** 0.06
18399 H 75.89327635055145 106.81413042876358 87.2077994150088 H 0.0 **** 0.06
18400 H 77.22114425993686 107.95119449989357 87.53932090959498 H 0.0 **** 0.06
18401 C 49.46639800788199 37.909574373155884 49.99945387223356 C 0.0 **** -0.24
18402 H 49.27683940609188 37.34802558671227 50.91482654445602 H 0.0 **** 0.06
18403 H 50.43390997726624 37.61997288201815 49.58963791030271 H 0.0 **** 0.06
18404 H 49.46986091540617 38.97608466049015 50.221506357247705 H 0.0 **** 0.06
18405 H 48.68394098451472 37.692013345569436 49.27211433398591 H 0.0 **** 0.06
18406 C 91.30441210802383 33.57920752127211 107.59566018316221 C 0.0 **** -0.24
18407 H 91.8724440914699 34.453140069957016 107.27825810327752 H 0.0 **** 0.06
18408 H 91.44449204617581 32.773864913006065 106.87450522554545 H 0.0 **** 0.06
18409 H 90.24653554206941 33.835771628793026 107.6540691982502 H 0.0 **** 0.06
18410 H 91.65383591506315 33.255411032667325 108.57560577116257 H 0.0 **** 0.06
18411 C 98.97895349362659 58.72196163273827 91.26338771012743 C 0.0 **** -0.24
18412 H 99.87315638145463 58.4163854710296 91.80606250876289 H 0.0 **** 0.06
18413 H 98.10858051464788 58.62324141407328 91.9128619776738 H 0.0 **** 0.06
18414 H 98.85194680021462 58.08856465187412 90.3863791366868 H 0.0 **** 0.06
18415 H 99.08287610244903 59.76102070254643 90.94985310625694 H 0.0 **** 0.06
18416 C 6.581680255086468 20.90680970314753 93.00785776516898 C 0.0 **** -0.24
18417 H 7.146962161053153 21.626542479572834 92.41645805237437 H 0.0 **** 0.06
18418 H 5.898349955787495 20.360221480171674 92.35842297365198 H 0.0 **** 0.06
18419 H 6.012831723804936 21.43427123469695 93.77394149736705 H 0.0 **** 0.06
18420 H 7.269559890441315 20.207988533269997 93.48396820965448 H 0.0 **** 0.06
18421 C 68.17796830033731 37.944985368205906 111.91828322644528 C 0.0 **** -0.24
18422 H 67.34096407325686 38.632194610560184 112.03800329757425 H 0.0 **** 0.06
18423 H 68.03230978166451 37.348240032035605 111.01784046321035 H 0.0 **** 0.06
18424 H 68.23419569905627 37.28655622615992 112.78594053019091 H 0.0 **** 0.06
18425 H 69.10491693366589 38.51184211546957 111.83206129097638 H 0.0 **** 0.06
18426 C 107.89659305623144 69.65332613401534 13.306954234182093 C 0.0 **** -0.24
18427 H 107.18543506615012 69.24615426501896 12.588783707995944 H 0.0 **** 0.06
18428 H 108.78292480624788 69.01898049679738 13.341382025500682 H 0.0 **** 0.06
18429 H 107.43560379493783 69.68687033767611 14.294872927919144 H 0.0 **** 0.06
18430 H 108.18172130171061 70.66053041404331 13.004762356083226 H 0.0 **** 0.06
18431 C 85.79281443682356 56.17023980466058 19.75195956293311 C 0.0 **** -0.24
18432 H 84.93108074932303 55.515589397811794 19.892556969832526 H 0.0 **** 0.06
18433 H 85.45057498232251 57.1968215197077 19.619593662102034 H 0.0 **** 0.06
18434 H 86.34777174177526 55.85446926290342 18.86842918072631 H 0.0 **** 0.06
18435 H 86.4390442077468 56.11202232750935 20.627350522125653 H 0.0 **** 0.06
18436 C 88.27607973814878 108.92879329455076 100.25919422046348 C 0.0 **** -0.24
18437 H 87.82650121800845 109.59341934051844 100.9974746479156 H 0.0 **** 0.06
18438 H 87.60123115900132 108.09452867217942 100.06425940747545 H 0.0 **** 0.06
18439 H 89.22309832056038 108.54956022207895 100.64109546072586 H 0.0 **** 0.06
18440 H 88.45071147301468 109.4787997669428 99.33399410200224 H 0.0 **** 0.06
18441 C 43.103596674772604 89.88879464992968 76.27156839587147 C 0.0 **** -0.24
18442 H 42.26674109040755 90.12575289081062 76.92898008214561 H 0.0 **** 0.06
18443 H 43.41646504490953 88.8574700391186 76.44177896854754 H 0.0 **** 0.06
18444 H 43.93415369894595 90.56102780007151 76.48331376243155 H 0.0 **** 0.06
18445 H 42.79471106280198 90.00823337843536 75.2333744813671 H 0.0 **** 0.06
18446 C 75.13259973804296 66.90661861206323 46.148092250130574 C 0.0 **** -0.24
18447 H 75.49123566227377 65.87970003453825 46.08722348139389 H 0.0 **** 0.06
18448 H 75.18600399815156 67.36960299248523 45.162572570779716 H 0.0 **** 0.06
18449 H 75.75274529375042 67.4676179487455 46.84769631023829 H 0.0 **** 0.06
18450 H 74.09895735214832 66.91012759022047 46.495617412957046 H 0.0 **** 0.06
18451 C 35.01376361912545 104.03119969521441 86.01515217821913 C 0.0 **** -0.24
18452 H 34.27646910262463 104.56230634869272 85.41341713030593 H 0.0 **** 0.06
18453 H 35.5911625016709 103.36324949208006 85.3751235155033 H 0.0 **** 0.06
18454 H 34.504047404676264 103.44878660771843 86.78277184604212 H 0.0 **** 0.06
18455 H 35.6820369144888 104.75021628328994 86.48890793078121 H 0.0 **** 0.06
18456 C 117.524314308468 113.44949796477772 38.20266264858989 C 0.0 **** -0.24
18457 H 117.43872030718595 113.52030958214203 39.28641994562426 H 0.0 **** 0.06
18458 H 117.36043179604134 112.41710338222538 37.89217339652379 H 0.0 **** 0.06
18459 H 118.52070732022011 113.76732536053913 37.89576482221844 H 0.0 **** 0.06
18460 H 116.77832679573334 114.09230320615944 37.735808715181236 H 0.0 **** 0.06
18461 C 34.261017660158075 101.91463709269175 40.97636079289045 C 0.0 **** -0.24
18462 H 34.92029537712503 102.35117693949766 41.725817498007146 H 0.0 **** 0.06
18463 H 34.7750557781832 101.09409197643839 40.47422317578068 H 0.0 **** 0.06
18464 H 33.99008989200601 102.67555869088972 40.24425967210515 H 0.0 **** 0.06
18465 H 33.359545330671494 101.53833275279572 41.460255688780386 H 0.0 **** 0.06
18466 C 18.784357903554906 39.37428827067951 117.6738784108251 C 0.0 **** -0.24
18467 H 19.28129849338444 38.427092951356535 117.46140084695155 H 0.0 **** 0.06
18468 H 17.773265545824103 39.353344535216074 117.26623613983864 H 0.0 **** 0.06
18469 H 19.345506426376346 40.18869415760389 117.21385878829464 H 0.0 **** 0.06
18470 H 18.740293929236714 39.52750258652769 118.75175282730099 H 0.0 **** 0.06
18471 C 76.04604946139145 57.393656801757885 21.8624575573005 C 0.0 **** -0.24
18472 H 75.22008838897591 57.56308549666281 22.554091754050717 H 0.0 **** 0.06
18473 H 76.63103629523764 58.30884657275979 21.76602771866925 H 0.0 **** 0.06
18474 H 75.65028750487895 57.11000682725509 20.887750586708876 H 0.0 **** 0.06
18475 H 76.68087070174874 56.594476967638116 22.2437305480112 H 0.0 **** 0.06
18476 C 95.16041652569385 0.261893079040874 41.36539146101387 C 0.0 **** -0.24
18477 H 94.87798058048719 -0.30525524224094625 42.252485764362774 H 0.0 **** 0.06
18478 H 95.13758176689504 1.3276083894436113 41.591800353849095 H 0.0 **** 0.06
18479 H 94.46001067385083 0.045904315265090645 40.55899513770166 H 0.0 **** 0.06
18480 H 96.166788414949 -0.02303209926992622 41.05819145071226 H 0.0 **** 0.06
18481 C 22.40181649867634 30.891244616045697 17.595709315883965 C 0.0 **** -0.24
18482 H 21.856056884187012 30.347411766661907 18.36660478983775 H 0.0 **** 0.06
18483 H 21.786681710496225 30.967217709945515 16.699338397276843 H 0.0 **** 0.06
18484 H 23.324307112393456 30.36015722038499 17.36011466173967 H 0.0 **** 0.06
18485 H 22.640698631296573 31.892086222020623 17.95786685250625 H 0.0 **** 0.06
18486 C 33.42211434239991 32.29727345250859 17.414222888073027 C 0.0 **** -0.24
18487 H 32.528991977010975 32.49895117579044 16.822366370990096 H 0.0 **** 0.06
18488 H 34.30365277091772 32.36978530226878 16.77730248802675 H 0.0 **** 0.06
18489 H 33.35938952060164 31.294940946630504 17.836887842530757 H 0.0 **** 0.06
18490 H 33.49422013063179 33.02765538982585 18.220701410108745 H 0.0 **** 0.06
18491 C 118.75577016381479 92.77394938834013 75.56182332514715 C 0.0 **** -0.24
18492 H 119.36733658884147 91.8753146322189 75.64630815706636 H 0.0 **** 0.06
18493 H 119.3988492700379 93.63623536876867 75.38332186862269 H 0.0 **** 0.06
18494 H 118.19678458583653 92.9217989281189 76.48538932676635 H 0.0 **** 0.06
18495 H 118.06031989129555 92.66240642209644 74.7298337423405 H 0.0 **** 0.06
18496 C 82.65713666495 30.34969517906839 109.9354276302034 C 0.0 **** -0.24
18497 H 81.6764920940497 30.41255954681391 109.46394077449155 H 0.0 **** 0.06
18498 H 82.91365479661576 29.30348243919309 110.10258304306059 H 0.0 **** 0.06
18499 H 82.63573109401841 30.876476215656652 110.88934644195766 H 0.0 **** 0.06
18500 H 83.40252999428847 30.80687093799881 109.28347151903054 H 0.0 **** 0.06
18501 C 50.49600697004183 85.89140345784867 42.36187840101208 C 0.0 **** -0.24
18502 H 49.764752119771686 85.12974431616954 42.62886370047881 H 0.0 **** 0.06
18503 H 49.97734630672477 86.78673088243204 42.01718931486329 H 0.0 **** 0.06
18504 H 51.139265819269326 85.51470821643002 41.56624132712605 H 0.0 **** 0.06
18505 H 51.10239233005325 86.13572467252382 43.23410057010548 H 0.0 **** 0.06
18506 C 41.667343496723106 55.73449821239686 83.35732852182048 C 0.0 **** -0.24
18507 H 41.94700961847769 54.759051434773795 82.95818310007002 H 0.0 **** 0.06
18508 H 41.23626032428177 55.610105378998725 84.35145596741958 H 0.0 **** 0.06
18509 H 40.93272569111855 56.19854600749852 82.69864503365949 H 0.0 **** 0.06
18510 H 42.55124586354515 56.36856928316138 83.42032856383261 H 0.0 **** 0.06
18511 C 53.594383527393916 43.228021124705265 84.12215853091914 C 0.0 **** -0.24
18512 H 53.397144417272585 42.60713522854638 84.99479412346597 H 0.0 **** 0.06
18513 H 52.650284363852194 43.58004926953794 83.70524777304485 H 0.0 **** 0.06
18514 H 54.12646959402412 42.643103790601856 83.3723141040378 H 0.0 **** 0.06
18515 H 54.202794411950904 44.08335429095291 84.414912526757 H 0.0 **** 0.06
18516 C 43.512379854832034 81.47459773933647 75.59164729355504 C 0.0 **** -0.24
18517 H 43.93787290693345 81.25179942636089 76.56942695359447 H 0.0 **** 0.06
18518 H 42.6641277013166 80.81530458451758 75.40519504842834 H 0.0 **** 0.06
18519 H 44.269723391325186 81.31856055262844 74.8230760453672 H 0.0 **** 0.06
18520 H 43.17936704084016 82.51205399658832 75.56744953677497 H 0.0 **** 0.06
18521 C 3.5626968420851384 104.17991903159307 55.553312270732654 C 0.0 **** -0.24
18522 H 3.944417573294178 103.76163188265522 56.485003609101405 H 0.0 **** 0.06
18523 H 2.5294838748522075 103.86502947780463 55.41000124201144 H 0.0 **** 0.06
18524 H 4.170772409484064 103.82556717238438 54.721215875963416 H 0.0 **** 0.06
18525 H 3.6081343949496887 105.26808275819687 55.599946121093744 H 0.0 **** 0.06
18526 C 106.20485846063838 109.23011220708918 10.43262171010187 C 0.0 **** -0.24
18527 H 105.37734425581249 109.66651124416478 9.874641781721891 H 0.0 **** 0.06
18528 H 105.8173163195651 108.70418765820727 11.304335506682321 H 0.0 **** 0.06
18529 H 106.88248272458125 110.02061400053216 10.755252836912263 H 0.0 **** 0.06
18530 H 106.7429990533615 108.52899037064557 9.793916378012597 H 0.0 **** 0.06
18531 C 71.3999163945245 97.41314747056876 28.256247892490535 C 0.0 **** -0.24
18532 H 70.82638283860683 97.72544178563871 27.383365823042993 H 0.0 **** 0.06
18533 H 72.4053873644082 97.12846873012055 27.946884529666022 H 0.0 **** 0.06
18534 H 70.90938439280094 96.56249957061081 28.728417374835885 H 0.0 **** 0.06
18535 H 71.45832466668077 98.23859402188305 28.965953503688667 H 0.0 **** 0.06
18536 C 18.731687593081073 53.846208025324074 113.79906942026774 C 0.0 **** -0.24
18537 H 18.91952806999194 52.96001462377447 114.40658968599033 H 0.0 **** 0.06
18538 H 17.676305335635533 54.112717755143564 113.86291668009729 H 0.0 **** 0.06
18539 H 18.991907673941327 53.635173565210636 112.76114137852748 H 0.0 **** 0.06
18540 H 19.33957487768159 54.67284199480497 114.16560297392137 H 0.0 **** 0.06
18541 C 39.40338026466287 19.497950234181957 0.341747474742931 C 0.0 **** -0.24
18542 H 39.03862578276539 19.243333278811463 1.3366092316069285 H 0.0 **** 0.06
18543 H 39.07668183316076 18.739626659877928 -0.3706127765016731 H 0.0 **** 0.06
18544 H 40.493599129654285 19.53879884392353 0.35390974777169504 H 0.0 **** 0.06
18545 H 39.00667649083806 20.469281105852843 0.04749420942005145 H 0.0 **** 0.06
18546 C 88.04575219360845 18.63622937553632 44.52041428433438 C 0.0 **** -0.24
18547 H 87.54314087009101 17.705559566038918 44.78558628448039 H 0.0 **** 0.06
18548 H 87.92714569654888 18.819636178294417 43.45185165328911 H 0.0 **** 0.06
18549 H 89.10572063597445 18.557952427879226 44.76014148951907 H 0.0 **** 0.06
18550 H 87.60513437018506 19.459622720061812 45.08269705451528 H 0.0 **** 0.06
18551 C 109.4383694005706 23.08161318213765 83.42550474215344 C 0.0 **** -0.24
18552 H 109.60769748979462 23.478842671590094 84.42548884317048 H 0.0 **** 0.06
18553 H 109.1001479777185 23.883144380448982 82.76825165624109 H 0.0 **** 0.06
18554 H 108.67668190977776 22.302757238651523 83.46795687092435 H 0.0 **** 0.06
18555 H 110.36639935507034 22.660651748229974 83.03914814325225 H 0.0 **** 0.06
18556 C 29.365200563058067 2.963113521055446 61.29621297505537 C 0.0 **** -0.24
18557 H 28.947560535645948 2.1142891507077017 61.83829194019273 H 0.0 **** 0.06
18558 H 30.32025841044299 3.241922567236845 61.74054342204363 H 0.0 **** 0.06
18559 H 28.676126159855528 3.8053572264647073 61.35362848840799 H 0.0 **** 0.06
18560 H 29.516127771478295 2.687217717579024 60.25225076750661 H 0.0 **** 0.06
18561 C 89.43630981275817 10.870250689370778 8.539386970381617 C 0.0 **** -0.24
18562 H 89.72104886755176 10.800626902335011 7.488583998475168 H 0.0 **** 0.06
18563 H 89.98519082112068 11.685655082969333 9.010907813265646 H 0.0 **** 0.06
18564 H 89.67268468803536 9.932680312856377 9.04226196340969 H 0.0 **** 0.06
18565 H 88.36521152433022 11.062152699020373 8.612220475049956 H 0.0 **** 0.06
18566 C 78.60699182822191 12.834740224675613 1.6054900576943396 C 0.0 **** -0.24
18567 H 78.65295989172648 13.663219260328503 2.3121929536366963 H 0.0 **** 0.06
18568 H 79.40470448460024 12.94060849227543 0.8705771577332655 H 0.0 **** 0.06
18569 H 77.64187300402756 12.843288177331885 1.0982226720432777 H 0.0 **** 0.06
18570 H 78.72683932633686 11.892518482416364 2.1408388901146793 H 0.0 **** 0.06
18571 C 113.39161136891212 69.43183828351081 109.60957181920543 C 0.0 **** -0.24
18572 H 112.96280911156911 69.58711391470709 110.59880767678052 H 0.0 **** 0.06
18573 H 114.22022846870058 68.7256484924174 109.68046879333698 H 0.0 **** 0.06
18574 H 113.75597710113695 70.38198472630893 109.21767645131246 H 0.0 **** 0.06
18575 H 112.62934369221709 69.03113838687787 108.94176711701178 H 0.0 **** 0.06
18576 C 7.222200462830145 94.07698738254251 22.740075018968525 C 0.0 **** -0.24
18577 H 6.53451567558497 94.39596887044777 23.52304819207461 H 0.0 **** 0.06
18578 H 7.738905809331783 93.17067276955393 23.057703804301923 H 0.0 **** 0.06
18579 H 7.950712408933768 94.86527088531562 22.55328645153969 H 0.0 **** 0.06
18580 H 6.6631400746682345 93.87475042121687 21.826159105154773 H 0.0 **** 0.06
18581 C 32.3691231807971 85.95137998592838 1.3134886713936567 C 0.0 **** -0.24
18582 H 31.69911232862068 85.92549051910501 0.454133819705703 H 0.0 **** 0.06
18583 H 33.19230968659489 86.63697492144195 1.1121080919092492 H 0.0 **** 0.06
18584 H 32.764813917413015 84.95149257074041 1.4951384436062654 H 0.0 **** 0.06
18585 H 31.819655352990978 86.2894300343782 2.192268427829106 H 0.0 **** 0.06
18586 C 17.16600387685375 8.366682671196187 116.36495253016909 C 0.0 **** -0.24
18587 H 17.65857676690014 8.812918044641421 115.50124975300926 H 0.0 **** 0.06
18588 H 16.124616103866316 8.155658179489492 116.12145355349935 H 0.0 **** 0.06
18589 H 17.20935868734739 9.05940129259183 117.20602559602489 H 0.0 **** 0.06
18590 H 17.67149951335476 7.439392803032234 116.63234205890217 H 0.0 **** 0.06
18591 C 117.00121403390511 102.3820575829929 59.45546617869226 C 0.0 **** -0.24
18592 H 116.54356770211007 101.43239549507922 59.73421763714333 H 0.0 **** 0.06
18593 H 116.70501112961028 102.64425191274407 58.440162531232005 H 0.0 **** 0.06
18594 H 118.08636652970864 102.28999153514098 59.506412264479195 H 0.0 **** 0.06
18595 H 116.66952585347207 103.16042703751944 60.143810282768584 H 0.0 **** 0.06
18596 C 104.10281383748173 19.266530333533698 89.71731531677355 C 0.0 **** -0.24
18597 H 104.77027879381009 19.176379968288867 88.86052421563596 H 0.0 **** 0.06
18598 H 104.51750275727733 19.98185167859361 90.42694338192871 H 0.0 **** 0.06
18599 H 103.99733548980865 18.294499599726908 90.19889825623451 H 0.0 **** 0.06
18600 H 103.1256414848774 19.61191827788979 89.38032880674504 H 0.0 **** 0.06
18601 C 9.798079039983833 58.26858141310029 100.4176240585391 C 0.0 **** -0.24
18602 H 9.038423833256246 57.841082336794216 101.07190386474542 H 0.0 **** 0.06
18603 H 10.270659740641236 59.11526087707287 100.91569528426334 H 0.0 **** 0.06
18604 H 9.332552270450861 58.60452688176704 99.4919243534531 H 0.0 **** 0.06
18605 H 10.55051340315012 57.51209834147238 100.19364305637657 H 0.0 **** 0.06
18606 C 94.08573269779629 112.80713650636366 65.25283112108056 C 0.0 **** -0.24
18607 H 94.38270111152909 112.59208818993943 66.27901800295498 H 0.0 **** 0.06
18608 H 93.02537086275885 112.58142962187372 65.12719702728356 H 0.0 **** 0.06
18609 H 94.67145447398195 112.19334236368113 64.56908974127896 H 0.0 **** 0.06
18610 H 94.26084376604436 113.86049904025887 65.03703728631393 H 0.0 **** 0.06
18611 C 106.29726551307937 15.717470195017 14.854331232255817 C 0.0 **** -0.24
18612 H 105.87831507762925 15.657889868287185 15.859247813262527 H 0.0 **** 0.06
18613 H 106.86611263347996 14.811081041922336 14.645038913867324 H 0.0 **** 0.06
18614 H 106.95389370807521 16.583982193373828 14.785194684546923 H 0.0 **** 0.06
18615 H 105.48860715963767 15.815426447595371 14.129325114353264 H 0.0 **** 0.06
18616 C 60.855245537433056 74.77749109273296 26.138594042581957 C 0.0 **** -0.24
18617 H 60.63203313647603 75.84446540158214 26.134516345220874 H 0.0 **** 0.06
18618 H 61.4564111353666 74.53684397008189 27.015850847396734 H 0.0 **** 0.06
18619 H 61.40741307800665 74.5180907197653 25.235886469923514 H 0.0 **** 0.06
18620 H 59.92329849143194 74.21220396876717 26.169847774022315 H 0.0 **** 0.06
18621 C 69.88195742696524 16.848637188562464 109.20740097297937 C 0.0 **** -0.24
18622 H 70.11528625012843 17.65863017429183 109.89926270559039 H 0.0 **** 0.06
18623 H 69.45095186796291 16.012896089727633 109.75877162963393 H 0.0 **** 0.06
18624 H 70.7938782612942 16.523627253018134 108.70737352021371 H 0.0 **** 0.06
18625 H 69.1654403424539 17.201345085729002 108.46437534719257 H 0.0 **** 0.06
18626 C 32.004102635642965 1.266863761493795 88.31046939987272 C 0.0 **** -0.24
18627 H 31.373930773861588 0.7709545823233555 87.57206226915525 H 0.0 **** 0.06
18628 H 31.46069626904199 2.1038848911992147 88.74730304938566 H 0.0 **** 0.06
18629 H 32.91012053513441 1.6334437888314426 87.82669126048108 H 0.0 **** 0.06
18630 H 32.271870799095524 0.5577354972330966 89.09319529899975 H 0.0 **** 0.06
18631 C 68.50878137673149 19.266471576253934 61.5810422224738 C 0.0 **** -0.24
18632 H 69.27804446685352 19.242618029942662 60.80846475670387 H 0.0 **** 0.06
18633 H 68.80730411469628 19.95900154872004 62.36889122990095 H 0.0 **** 0.06
18634 H 68.38417017226774 18.26917114186034 62.000508958428384 H 0.0 **** 0.06
18635 H 67.56692398797964 19.597442448063646 61.14390438554142 H 0.0 **** 0.06
18636 C 9.059174846771555 81.38951597087163 3.4049144926300645 C 0.0 **** -0.24
18637 H 8.39705580460705 82.25406020797672 3.4497273292726724 H 0.0 **** 0.06
18638 H 9.924461805354213 81.56083116334878 4.045539324267272 H 0.0 **** 0.06
18639 H 9.3907902420641 81.23966033569275 2.3769178234468598 H 0.0 **** 0.06
18640 H 8.523183174464066 80.50348704331796 3.7455921307870064 H 0.0 **** 0.06
18641 C 94.60782511905106 88.68917898484992 71.03335491098665 C 0.0 **** -0.24
18642 H 93.70771262361947 88.07564419499454 71.00249886121304 H 0.0 **** 0.06
18643 H 95.22435657948554 88.47292096477133 70.16001873078801 H 0.0 **** 0.06
18644 H 95.17038996906646 88.46516749874499 71.93957684898132 H 0.0 **** 0.06
18645 H 94.32933822685823 89.74301057160733 71.0289267296429 H 0.0 **** 0.06
18646 C 0.8664022311152308 97.33054803636043 107.26012663645955 C 0.0 **** -0.24
18647 H 1.0371927362235596 96.42849227931418 106.67172656719413 H 0.0 **** 0.06
18648 H -0.14485175079478552 97.31185668129936 107.66711879514364 H 0.0 **** 0.06
18649 H 0.9862767331111257 98.20728755618975 106.6238362342448 H 0.0 **** 0.06
18650 H 1.5863888626570173 97.3728354274526 108.07652942493561 H 0.0 **** 0.06
18651 C 104.9031821703228 55.23137968721331 79.71685914349803 C 0.0 **** -0.24
18652 H 104.5296008754369 56.16808708816858 80.13039248429612 H 0.0 **** 0.06
18653 H 104.5326879699665 55.11050764433079 78.69833146365352 H 0.0 **** 0.06
18654 H 104.5582067381421 54.399880440397965 80.33069582356325 H 0.0 **** 0.06
18655 H 105.99331541812239 55.247823457103074 79.70754724405282 H 0.0 **** 0.06
18656 C 113.84430214553491 2.6341539968554173 57.83334938416647 C 0.0 **** -0.24
18657 H 114.37919175519637 2.3777914331406578 56.91910877853661 H 0.0 **** 0.06
18658 H 113.08531146327486 3.384578022890551 57.61223291211951 H 0.0 **** 0.06
18659 H 114.54675294724947 3.031737619286801 58.56576845443789 H 0.0 **** 0.06
18660 H 113.36612445636322 1.740282553900684 58.23616896774257 H 0.0 **** 0.06
18661 C 3.3490250819089624 51.25732788546809 115.16557279156363 C 0.0 **** -0.24
18662 H 2.4423446642668125 51.379561633912544 114.57197934982487 H 0.0 **** 0.06
18663 H 3.8552214646007315 52.21942747652359 115.2566567590468 H 0.0 **** 0.06
18664 H 4.01013455644636 50.54331651151702 114.67617368095692 H 0.0 **** 0.06
18665 H 3.0859016383355424 50.88891955542301 116.15716743244056 H 0.0 **** 0.06
18666 C 11.809052782276467 118.11997542811046 63.70199900755887 C 0.0 **** -0.24
18667 H 11.076039309240258 118.52832560410435 63.00546400000306 H 0.0 **** 0.06
18668 H 11.803209916889244 118.70747064124019 64.62033164289352 H 0.0 **** 0.06
18669 H 12.800090686194409 118.16169976135829 63.249881175301 H 0.0 **** 0.06
18670 H 11.555763883122012 117.0847448091543 63.92961676366761 H 0.0 **** 0.06
18671 C 19.002242799016074 114.3096037560594 70.59609369866556 C 0.0 **** -0.24
18672 H 17.962228487492126 114.6139449675403 70.71513674509723 H 0.0 **** 0.06
18673 H 19.362886271850158 114.62662980958845 69.61718850489368 H 0.0 **** 0.06
18674 H 19.073806282951722 113.22471348784671 70.67676818677396 H 0.0 **** 0.06
18675 H 19.607767078004827 114.77253777387818 71.37461727008974 H 0.0 **** 0.06
18676 C 39.391162158865825 102.38853770982928 100.87043490753297 C 0.0 **** -0.24
18677 H 39.04061703329256 102.47222795295573 99.8417344516962 H 0.0 **** 0.06
18678 H 39.39057715347951 101.34086794178558 101.1706452717925 H 0.0 **** 0.06
18679 H 38.7292999088624 102.95525006641009 101.52577533118483 H 0.0 **** 0.06
18680 H 40.40282444042123 102.78818006807745 100.94232368867733 H 0.0 **** 0.06
18681 C 42.42445630469197 2.797937134028615 5.7003895426365006 C 0.0 **** -0.24
18682 H 41.56071449388759 2.132546287050644 5.6914051383703 H 0.0 **** 0.06
18683 H 42.203946232101714 3.670987187291871 6.314725354892062 H 0.0 **** 0.06
18684 H 42.64750397616041 3.1156172290628206 4.682191319560587 H 0.0 **** 0.06
18685 H 43.28426993262627 2.270136340734183 6.113324685995195 H 0.0 **** 0.06
18686 C 0.7709080590980903 27.155050184007422 45.671019311394275 C 0.0 **** -0.24
18687 H 1.1190742350236462 28.084128571792746 46.12201068024274 H 0.0 **** 0.06
18688 H 1.2065143358924075 26.308356691075545 46.20292997672624 H 0.0 **** 0.06
18689 H 1.0747327319785853 27.12214453499675 44.62493550447266 H 0.0 **** 0.06
18690 H -0.3161489150837582 27.10447040841757 45.736321796768436 H 0.0 **** 0.06
18691 C 56.099155079386264 94.54951462335683 76.43103393539687 C 0.0 **** -0.24
18692 H 56.04555980448464 95.62972689736694 76.5658988607789 H 0.0 **** 0.06
18693 H 55.44664987828048 94.25361442446828 75.60941685914798 H 0.0 **** 0.06
18694 H 55.77838790006655 94.05325766162613 77.3466916137406 H 0.0 **** 0.06
18695 H 57.12593424689635 94.26269464124638 76.20281158999191 H 0.0 **** 0.06
18696 C 82.09038961966775 62.426322277359816 6.609842739111741 C 0.0 **** -0.24
18697 H 81.59177907543545 62.04237153630271 5.719836601417072 H 0.0 **** 0.06
18698 H 81.46377309284134 63.187399975092944 7.076210738376915 H 0.0 **** 0.06
18699 H 83.04760393029272 62.86519023214217 6.329770954922921 H 0.0 **** 0.06
18700 H 82.25620140071572 61.610031838348334 7.31329065791266 H 0.0 **** 0.06
18701 C 64.87978252654881 50.43293332185084 117.7484724254182 C 0.0 **** -0.24
18702 H 64.65119738032936 50.625436745557295 118.79670418976362 H 0.0 **** 0.06
18703 H 64.2793550699619 49.59400878813207 117.39456968403826 H 0.0 **** 0.06
18704 H 65.93749385676222 50.191720789570525 117.64562889890308 H 0.0 **** 0.06
18705 H 64.64910322484968 51.31923470587185 117.15753716957254 H 0.0 **** 0.06
18706 C 45.34854335231432 48.949258483362 99.70231796906126 C 0.0 **** -0.24
18707 H 45.93704479900839 49.86644675791683 99.68757799197272 H 0.0 **** 0.06
18708 H 45.317398217785126 48.5213966756001 98.70030807850873 H 0.0 **** 0.06
18709 H 44.33492611779337 49.174612623886304 100.03380278247312 H 0.0 **** 0.06
18710 H 45.80582192071927 48.23602467327191 100.38851651594575 H 0.0 **** 0.06
18711 C 64.36393644842681 37.49820916112452 2.252810382487553 C 0.0 **** -0.24
18712 H 63.91416976493835 38.236563957750946 2.917990659200143 H 0.0 **** 0.06
18713 H 64.21533837100088 37.804893129063515 1.2168517938992949 H 0.0 **** 0.06
18714 H 63.894773932389455 36.52877500145024 2.4166103624196182 H 0.0 **** 0.06
18715 H 65.43135760171748 37.425858060005226 2.460973684335798 H 0.0 **** 0.06
18716 C 71.55656508512345 11.55195182742574 67.65520655838296 C 0.0 **** -0.24
18717 H 71.36692296323412 12.625903976287162 67.63781958643332 H 0.0 **** 0.06
18718 H 71.56470461961658 11.16835341503679 66.63411073644494 H 0.0 **** 0.06
18719 H 70.77285992277439 11.054067206373674 68.22554386981798 H 0.0 **** 0.06
18720 H 72.52326633223385 11.362886985216392 68.12292635392646 H 0.0 **** 0.06
18721 C 9.639342529754629 40.1165324426006 45.88355576796437 C 0.0 **** -0.24
18722 H 8.871598718336713 39.65017899423506 45.26673616038545 H 0.0 **** 0.06
18723 H 9.16657151913671 40.761180675562116 46.625518626697556 H 0.0 **** 0.06
18724 H 10.299815236668735 40.71139543874742 45.25289312279591 H 0.0 **** 0.06
18725 H 10.217234451164757 39.34375111613829 46.389560179470664 H 0.0 **** 0.06
18726 C 69.02936466082386 52.277399422059844 59.64444314130887 C 0.0 **** -0.24
18727 H 69.49707910088358 53.23975800768805 59.85259868725231 H 0.0 **** 0.06
18728 H 67.95338525106152 52.35474902720647 59.80280967218613 H 0.0 **** 0.06
18729 H 69.44119897958515 51.52127284821083 60.31171263595701 H 0.0 **** 0.06
18730 H 69.22447018195066 51.99516264921276 58.609453355263696 H 0.0 **** 0.06
18731 C 69.03549401523992 61.54511569785577 114.73735295755225 C 0.0 **** -0.24
18732 H 69.14904522475351 60.6097730930285 115.28578702763784 H 0.0 **** 0.06
18733 H 68.181636649074 61.46968341413818 114.06442494632277 H 0.0 **** 0.06
18734 H 69.93878785367716 61.738885037054025 114.15888493390462 H 0.0 **** 0.06
18735 H 68.87255459003086 62.36156975914157 115.44114774332094 H 0.0 **** 0.06
18736 C 24.806655706825467 68.1362471396429 24.924991387650323 C 0.0 **** -0.24
18737 H 24.857128426986435 69.08111497294118 24.384199530857813 H 0.0 **** 0.06
18738 H 25.60023298041611 67.47574789913466 24.57699372069888 H 0.0 **** 0.06
18739 H 23.83920796920603 67.66739954760129 24.748151579508033 H 0.0 **** 0.06
18740 H 24.930260640967134 68.3227984154426 25.991910329341223 H 0.0 **** 0.06
18741 C 55.02433156233229 56.90186499405928 105.17632387025819 C 0.0 **** -0.24
18742 H 55.32506942272963 56.74783886710074 104.13979683863181 H 0.0 **** 0.06
18743 H 53.96655245700126 56.662364948515005 105.28705636818418 H 0.0 **** 0.06
18744 H 55.19297636900592 57.94259590873628 105.45207671667498 H 0.0 **** 0.06
18745 H 55.61338707452117 56.253912100012144 105.82536255831528 H 0.0 **** 0.06
18746 C 4.216946482344312 83.12127697902693 75.74802028823618 C 0.0 **** -0.24
18747 H 4.487082450302026 84.16224414207568 75.57192808582465 H 0.0 **** 0.06
18748 H 3.39016837249423 82.84513887220524 75.0937945962605 H 0.0 **** 0.06
18749 H 3.9160011078216854 82.99547686012912 76.78856718344238 H 0.0 **** 0.06
18750 H 5.074971189017958 82.4818753240192 75.53860982560698 H 0.0 **** 0.06
18751 C 50.44396783669134 8.385051249611152 63.277661075731096 C 0.0 **** -0.24
18752 H 50.873744917697906 8.910246896745551 64.12997128678771 H 0.0 **** 0.06
18753 H 49.60312785200392 8.956957137431122 62.88510108023005 H 0.0 **** 0.06
18754 H 50.09933767251472 7.40100243041439 63.594159880202604 H 0.0 **** 0.06
18755 H 51.200901697307 8.273135121917548 62.501001231436796 H 0.0 **** 0.06
18756 C 58.456207551521224 31.84292600858143 46.15920606476621 C 0.0 **** -0.24
18757 H 58.78272619587609 31.87140544888311 45.11928774600668 H 0.0 **** 0.06
18758 H 58.30887191464907 32.86108023135478 46.52139778401063 H 0.0 **** 0.06
18759 H 59.21677031697882 31.348273105508582 46.76453113412574 H 0.0 **** 0.06
18760 H 57.51889340632908 31.292639985482253 46.23114328861386 H 0.0 **** 0.06
18761 C 20.773035137427 57.594510389475175 67.51285226694614 C 0.0 **** -0.24
18762 H 21.656237552521958 57.84626527602066 68.09890129965632 H 0.0 **** 0.06
18763 H 21.05531569729476 56.9243429869108 66.7000275696295 H 0.0 **** 0.06
18764 H 20.338939211079577 58.5049481037488 67.0992165774897 H 0.0 **** 0.06
18765 H 20.04098956546862 57.101297557179294 68.15286866593891 H 0.0 **** 0.06
18766 C 96.84063489220063 85.25715889032227 117.41770410268904 C 0.0 **** -0.24
18767 H 95.89021975165264 84.75122997846196 117.24435290910456 H 0.0 **** 0.06
18768 H 97.41191538843549 85.28334058342125 116.48907728934957 H 0.0 **** 0.06
18769 H 97.40528696612068 84.71838307875657 118.17804822128839 H 0.0 **** 0.06
18770 H 96.65199515619503 86.27568568078811 117.75753467465991 H 0.0 **** 0.06
18771 C 88.04229815142392 10.678911734940215 12.315265357326481 C 0.0 **** -0.24
18772 H 88.239548770114 11.740078128108976 12.167933874398116 H 0.0 **** 0.06
18773 H 88.83639254796364 10.0937321347525 11.84927435406847 H 0.0 **** 0.06
18774 H 87.08580861159561 10.420550232893106 11.860477841777083 H 0.0 **** 0.06
18775 H 88.00817547880217 10.460340251764336 13.38212320252164 H 0.0 **** 0.06
18776 C 106.00920159868002 22.296507807834928 14.67495617348295 C 0.0 **** -0.24
18777 H 105.5296285277642 21.867211823880467 15.553773622888485 H 0.0 **** 0.06
18778 H 107.08906548322702 22.31938002221196 14.825300737934679 H 0.0 **** 0.06
18779 H 105.64248258221303 23.311032598679674 14.519958878880097 H 0.0 **** 0.06
18780 H 105.77719943395104 21.688847307136285 13.800206329179908 H 0.0 **** 0.06
18781 C 112.54100925529983 42.30735374763253 55.611979224814796 C 0.0 **** -0.24
18782 H 112.06239255384702 41.350223006496435 55.817916924856966 H 0.0 **** 0.06
18783 H 112.61877987532267 42.44915006697511 54.53325395707553 H 0.0 **** 0.06
18784 H 113.538485764785 42.31638033228194 56.052517262087 H 0.0 **** 0.06
18785 H 111.94633642165988 43.1124683372845 56.042572116174306 H 0.0 **** 0.06
18786 C 6.712093603261621 0.601672773441635 92.18002453403983 C 0.0 **** -0.24
18787 H 7.444808428110321 1.382673017784498 91.97329703500367 H 0.0 **** 0.06
18788 H 6.635222067620077 -0.06151315751276343 91.3181406761401 H 0.0 **** 0.06
18789 H 5.741320325095501 1.057432674222298 92.37643675156215 H 0.0 **** 0.06
18790 H 7.027732269923206 0.030326476534128233 93.05295477668841 H 0.0 **** 0.06
18791 C 79.91067620752833 11.55201569938879 80.0981878711776 C 0.0 **** -0.24
18792 H 80.0759944291697 10.482987561052 79.96335720842819 H 0.0 **** 0.06
18793 H 78.86004081485382 11.781775380971851 79.92155459778402 H 0.0 **** 0.06
18794 H 80.52864346519738 12.107350507054832 79.39236118517022 H 0.0 **** 0.06
18795 H 80.17831305743474 11.834087698826181 81.11668357456645 H 0.0 **** 0.06
18796 C 84.68802009262481 90.9907125420288 9.921122415614377 C 0.0 **** -0.24
18797 H 84.1956965994651 90.32739905760653 10.631917983357198 H 0.0 **** 0.06
18798 H 84.03637867363398 91.83764399772838 9.703953823169286 H 0.0 **** 0.06
18799 H 84.89699298628864 90.44628431445003 9.00017192241421 H 0.0 **** 0.06
18800 H 85.62311656398052 91.35186985879687 10.349812957930453 H 0.0 **** 0.06
18801 C 34.92068949777746 95.7043514585356 14.612223644103718 C 0.0 **** -0.24
18802 H 35.7513215863716 96.15254837095677 14.067435242674922 H 0.0 **** 0.06
18803 H 34.017667105404826 96.29342099146606 14.44836003068145 H 0.0 **** 0.06
18804 H 35.153511258651065 95.68405107723208 15.677045935666559 H 0.0 **** 0.06
18805 H 34.760091637901326 94.68641849388808 14.25624694400057 H 0.0 **** 0.06
18806 C 63.9155442176153 104.00548882674951 53.68600961554762 C 0.0 **** -0.24
18807 H 62.879081424944054 104.04501686395031 53.3500006587596 H 0.0 **** 0.06
18808 H 64.16953395829839 102.98009512417369 53.95758396790262 H 0.0 **** 0.06
18809 H 64.04113741535724 104.65310580118401 54.554157769284984 H 0.0 **** 0.06
18810 H 64.57145427141356 104.34222842338033 52.883964140823366 H 0.0 **** 0.06
18811 C 35.128507381942654 78.19471031236907 90.24310996075943 C 0.0 **** -0.24
18812 H 35.70593685835132 78.34905997776866 91.15395620396532 H 0.0 **** 0.06
18813 H 34.10148735329301 77.93623045940757 90.50278793248313 H 0.0 **** 0.06
18814 H 35.57302372571178 77.3851852125191 89.66389245362802 H 0.0 **** 0.06
18815 H 35.134805399268146 79.11037290692019 89.65023052335752 H 0.0 **** 0.06
18816 C 109.62577563836331 70.67553255806465 70.10350743581608 C 0.0 **** -0.24
18817 H 110.12645514553105 69.71273468207869 70.00713429281254 H 0.0 **** 0.06
18818 H 109.92913083676737 71.32662398668006 69.28311777473851 H 0.0 **** 0.06
18819 H 109.90120437707421 71.13455256569614 71.05245640753728 H 0.0 **** 0.06
18820 H 108.54631219408043 70.52821899780386 70.07132126817592 H 0.0 **** 0.06
18821 C 10.631408205505991 70.10741091547652 113.90145779262843 C 0.0 **** -0.24
18822 H 10.498516790499174 70.99422617628886 114.52277112183663 H 0.0 **** 0.06
18823 H 11.661360943104995 69.75917003456169 113.98314778082022 H 0.0 **** 0.06
18824 H 10.411634668279788 70.35582435527408 112.86320063866418 H 0.0 **** 0.06
18825 H 9.953800430345638 69.32296063764784 114.2399457416368 H 0.0 **** 0.06
18826 C 25.90511329849062 71.4025402929073 71.30916227687763 C 0.0 **** -0.24
18827 H 25.32394408764617 71.7574020020653 72.15999131682639 H 0.0 **** 0.06
18828 H 26.865462714894534 71.02223060570356 71.65868218495694 H 0.0 **** 0.06
18829 H 26.071336180618687 72.22601001161422 70.61397510881525 H 0.0 **** 0.06
18830 H 25.36045705619756 70.60513089803175 70.80425994469786 H 0.0 **** 0.06
18831 C 59.62075845102481 74.33621477109764 10.293306566142007 C 0.0 **** -0.24
18832 H 59.05168997264394 75.21446791284055 9.987536901274865 H 0.0 **** 0.06
18833 H 60.51753408142844 74.65182477189276 10.826724207266608 H 0.0 **** 0.06
18834 H 59.90465727237995 73.76169131376915 9.411823837361254 H 0.0 **** 0.06
18835 H 59.00696755762823 73.71669181469119 10.948928216717064 H 0.0 **** 0.06
18836 C 61.228184119335765 99.80854120038299 99.42065106814508 C 0.0 **** -0.24
18837 H 61.790929394255954 100.71147748189429 99.65709849039544 H 0.0 **** 0.06
18838 H 60.2360656715521 99.87301638624228 99.86790438337317 H 0.0 **** 0.06
18839 H 61.75204094878154 98.93964358742323 99.82086303210349 H 0.0 **** 0.06
18840 H 61.13444036261458 99.71090727880022 98.33950943030152 H 0.0 **** 0.06
18841 C 97.78346347261581 71.34914698932744 19.201844061543284 C 0.0 **** -0.24
18842 H 97.560361638709 70.59318779728434 19.955554823503448 H 0.0 **** 0.06
18843 H 98.29685420437346 72.18890784462693 19.67067266452004 H 0.0 **** 0.06
18844 H 96.85337027266499 71.69630587044483 18.751271148990725 H 0.0 **** 0.06
18845 H 98.42069240400858 70.91594270081717 18.431405319140765 H 0.0 **** 0.06
18846 C 36.682907260372644 98.53945285086644 88.03527728621012 C 0.0 **** -0.24
18847 H 35.75970978873957 98.7549147212768 88.57284324133244 H 0.0 **** 0.06
18848 H 37.50294292187613 99.10273741777848 88.48161754926403 H 0.0 **** 0.06
18849 H 36.56958994714901 98.82921122445885 86.99055107828389 H 0.0 **** 0.06
18850 H 36.89811023914372 97.4735998447467 88.09551425506794 H 0.0 **** 0.06
18851 C 107.51141151423235 92.05569227722526 89.19954548376558 C 0.0 **** -0.24
18852 H 108.2700177550214 92.83122864466492 89.29894069648722 H 0.0 **** 0.06
18853 H 106.85042150259142 92.08060393803919 90.06645911233718 H 0.0 **** 0.06
18854 H 107.99514892090241 91.08100389575168 89.13916979339339 H 0.0 **** 0.06
18855 H 106.93095981602494 92.22951890082857 88.2934882566237 H 0.0 **** 0.06
18856 C 4.316049625606979 111.96054190837077 16.427258054685012 C 0.0 **** -0.24
18857 H 4.829795140097019 111.25097159815994 17.077265899034273 H 0.0 **** 0.06
18858 H 4.628273852800248 112.97490752660863 16.679585441491895 H 0.0 **** 0.06
18859 H 3.2390824896160098 111.86587542669267 16.565607634210323 H 0.0 **** 0.06
18860 H 4.569434295335213 111.74929120122647 15.388818906989513 H 0.0 **** 0.06
18861 C 114.69276569212468 15.179966087862915 45.85826517055963 C 0.0 **** -0.24
18862 H 115.18927654281606 15.90830116889721 45.21551586302306 H 0.0 **** 0.06
18863 H 113.63412861010141 15.134549390309047 45.6028587966878 H 0.0 **** 0.06
18864 H 114.80347733159039 15.481248598315318 46.900328220037764 H 0.0 **** 0.06
18865 H 115.14577924467113 14.199463563678982 45.7134823703481 H 0.0 **** 0.06
18866 C 67.7398323452083 5.753358901747706 6.555342164391675 C 0.0 **** -0.24
18867 H 67.81684307743785 5.808691178418721 7.640926900575707 H 0.0 **** 0.06
18868 H 68.58175191520712 6.279176109160204 6.103534296224353 H 0.0 **** 0.06
18869 H 66.80705855646107 6.2159081054670455 6.232833469661983 H 0.0 **** 0.06
18870 H 67.7542447458597 4.708566520401419 6.243380962779682 H 0.0 **** 0.06
18871 C 77.84266372539739 82.68676735103077 94.05638033090904 C 0.0 **** -0.24
18872 H 77.29442818377674 81.90575512285577 94.58341284552378 H 0.0 **** 0.06
18873 H 77.29736308268332 83.62805140474845 94.13347234929145 H 0.0 **** 0.06
18874 H 77.94689367321436 82.41164553979186 93.00683201068733 H 0.0 **** 0.06
18875 H 78.8304787368034 82.80085718996875 94.50224976400946 H 0.0 **** 0.06
18876 C 27.257143609241837 87.31873610426535 112.33083343616784 C 0.0 **** -0.24
18877 H 27.64469133496476 87.24439477465398 113.34739320097749 H 0.0 **** 0.06
18878 H 27.463893486323514 86.39171427680478 111.79612549291711 H 0.0 **** 0.06
18879 H 27.740828030265106 88.1505482593345 111.8180785937615 H 0.0 **** 0.06
18880 H 26.18132514788897 87.48844725001032 112.36461640712876 H 0.0 **** 0.06
18881 C 29.275985582921464 86.89867767000212 84.42276735189364 C 0.0 **** -0.24
18882 H 29.971255418387614 87.2203819942626 85.1985197524773 H 0.0 **** 0.06
18883 H 28.74451351622446 86.00823331708028 84.75814900047604 H 0.0 **** 0.06
18884 H 29.8277588990928 86.67169362737084 83.5110991209427 H 0.0 **** 0.06
18885 H 28.559907173737997 87.69627855888265 84.22440628281092 H 0.0 **** 0.06
18886 C 48.55687820718407 55.87796661949136 25.606444169121858 C 0.0 **** -0.24
18887 H 48.546998790222304 55.947761478974655 24.518770671199434 H 0.0 **** 0.06
18888 H 47.87041778463405 56.61601141652477 26.023165445806605 H 0.0 **** 0.06
18889 H 49.56476424243482 56.07185078938733 25.973669233903287 H 0.0 **** 0.06
18890 H 48.24487256797408 54.87917586041817 25.90973940579204 H 0.0 **** 0.06
18891 C 10.37549629703085 95.25779086951357 74.61816011333966 C 0.0 **** -0.24
18892 H 10.250348017612794 94.37048271144738 73.99758883695111 H 0.0 **** 0.06
18893 H 10.120073107625302 95.0164622156328 75.65036507974324 H 0.0 **** 0.06
18894 H 9.71977012295406 96.04917015237805 74.25696694692255 H 0.0 **** 0.06
18895 H 11.411423916572659 95.59235587158088 74.5693363663404 H 0.0 **** 0.06
18896 C 43.85836750062427 65.45065809683425 71.61131516409296 C 0.0 **** -0.24
18897 H 43.050303102546536 65.17560718470932 70.93273314869828 H 0.0 **** 0.06
18898 H 43.45342531665159 66.02958066207162 72.44153807254509 H 0.0 **** 0.06
18899 H 44.59425193541162 66.04947689418469 71.07582133289384 H 0.0 **** 0.06
18900 H 44.33381053026841 64.54808777490456 71.99557591203279 H 0.0 **** 0.06
18901 C 21.618719928215853 103.46695180627029 94.01661149159048 C 0.0 **** -0.24
18902 H 21.16538229566936 104.04875596437432 94.81913717914287 H 0.0 **** 0.06
18903 H 22.308811539377814 104.09803172446937 93.45631220275027 H 0.0 **** 0.06
18904 H 20.83843845781763 103.09798694595841 93.35045733142667 H 0.0 **** 0.06
18905 H 22.16231861416668 102.62262585408303 94.44222141615313 H 0.0 **** 0.06
18906 C 112.3849016601445 23.91182447714344 54.28074989439765 C 0.0 **** -0.24
18907 H 112.2298261454223 23.07353658053421 53.600375990620456 H 0.0 **** 0.06
18908 H 113.42461828716318 24.23494354537253 54.226954126387696 H 0.0 **** 0.06
18909 H 112.1526953520393 23.600941236041464 55.29891852450569 H 0.0 **** 0.06
18910 H 111.73243356126412 24.73671002643401 53.99333935530467 H 0.0 **** 0.06
18911 C 94.41492751829736 38.40598655437922 35.30550304137539 C 0.0 **** -0.24
18912 H 95.40476811826125 38.864830186995164 35.30791281149236 H 0.0 **** 0.06
18913 H 94.22799027121769 37.94078816743832 36.27331216006807 H 0.0 **** 0.06
18914 H 94.36783847229788 37.64930821825685 34.52265499802385 H 0.0 **** 0.06
18915 H 93.66122705933608 39.17088806245116 35.11833500371526 H 0.0 **** 0.06
18916 C 64.38521794019331 18.17871973637989 80.75744315562466 C 0.0 **** -0.24
18917 H 63.668178833833004 17.73641932743095 81.4496821954022 H 0.0 **** 0.06
18918 H 64.24721663298536 19.259760849213563 80.73368752606555 H 0.0 **** 0.06
18919 H 64.2266726643916 17.769992556960332 79.75948070203074 H 0.0 **** 0.06
18920 H 65.39800047364807 17.9483337415262 81.08802506957358 H 0.0 **** 0.06
18921 C 103.25028353119927 17.158559899689976 54.56655334728538 C 0.0 **** -0.24
18922 H 103.64711509426235 17.489585617772562 53.60673187121097 H 0.0 **** 0.06
18923 H 102.853872398914 16.14842413604073 54.46605213352848 H 0.0 **** 0.06
18924 H 102.4545900501069 17.833059990108325 54.88121987285834 H 0.0 **** 0.06
18925 H 104.04735066310042 17.164536733156055 55.31023126940772 H 0.0 **** 0.06
18926 C 11.630053232811491 55.393974435857444 82.96137108137242 C 0.0 **** -0.24
18927 H 10.60126949977527 55.53677986405154 83.29135014819605 H 0.0 **** 0.06
18928 H 11.634212624739916 54.91463452196024 81.98247348148578 H 0.0 **** 0.06
18929 H 12.157335245290625 54.76356519718678 83.67749778154996 H 0.0 **** 0.06
18930 H 12.127642287862216 56.36188700651593 82.89414007771364 H 0.0 **** 0.06
18931 C 70.90279664537212 89.34901273958374 11.993181605352675 C 0.0 **** -0.24
18932 H 70.82857039124514 88.88859580987162 11.007385808752815 H 0.0 **** 0.06
18933 H 70.35688123946858 90.29234967554399 11.994715500902316 H 0.0 **** 0.06
18934 H 71.9508889083589 89.53464790499893 12.228514936471072 H 0.0 **** 0.06
18935 H 70.4759567390474 88.68021229487408 12.739940717869871 H 0.0 **** 0.06
18936 C 71.83360874181975 31.211252038231464 92.11421028559849 C 0.0 **** -0.24
18937 H 72.16146281662577 30.825132392154728 93.07994780663381 H 0.0 **** 0.06
18938 H 70.7443117474298 31.197177084891848 92.06975176103302 H 0.0 **** 0.06
18939 H 72.23902131334131 30.586568895859955 91.31800666047309 H 0.0 **** 0.06
18940 H 72.18989975288622 32.23327541403103 91.99132247244981 H 0.0 **** 0.06
18941 C 42.532863923230934 14.292670732970691 66.0800756606564 C 0.0 **** -0.24
18942 H 42.95157342171727 13.535385863600396 65.41676910179962 H 0.0 **** 0.06
18943 H 42.76566210965885 15.284134092313849 65.69152195192339 H 0.0 **** 0.06
18944 H 42.96464974498966 14.182124804760406 67.0747872628719 H 0.0 **** 0.06
18945 H 41.45245495569581 14.167619849065744 66.13640674398249 H 0.0 **** 0.06
18946 C 105.58518098105094 37.40767063004216 9.512109151266223 C 0.0 **** -0.24
18947 H 105.68232009466922 37.398575290837584 10.597404408140385 H 0.0 **** 0.06
18948 H 105.4858564257253 38.43663451592556 9.164679164186737 H 0.0 **** 0.06
18949 H 104.70219228151839 36.83864170048071 9.221531121982473 H 0.0 **** 0.06
18950 H 106.4709620460022 36.95607640785812 9.064572364446683 H 0.0 **** 0.06
18951 C 97.21715811561046 24.003607460425314 99.55249042856352 C 0.0 **** -0.24
18952 H 97.7208798927661 24.963410199452426 99.44149225608703 H 0.0 **** 0.06
18953 H 96.79014106751956 23.70473752963028 98.59565673280451 H 0.0 **** 0.06
18954 H 96.4221317711226 24.095060430382716 100.29266341230439 H 0.0 **** 0.06
18955 H 97.93551712796366 23.252123238072045 99.88162781710591 H 0.0 **** 0.06
18956 C 53.93025182444174 54.56430492397826 93.05684847740702 C 0.0 **** -0.24
18957 H 53.80425904140563 54.28045169770695 94.10207179457012 H 0.0 **** 0.06
18958 H 54.249461858961354 55.605092841070935 92.9994023794915 H 0.0 **** 0.06
18959 H 52.98266268339782 54.44533757410076 92.5321732299117 H 0.0 **** 0.06
18960 H 54.683450370594045 53.92633473670104 92.5958967634287 H 0.0 **** 0.06
18961 C 110.47415923193928 13.175214563199368 14.254551779687972 C 0.0 **** -0.24
18962 H 110.83507877610276 12.403767520851527 14.935875638179255 H 0.0 **** 0.06
18963 H 110.00490759801252 12.704995977452132 13.389672582279388 H 0.0 **** 0.06
18964 H 111.31154564401156 13.789944565666168 13.92655557927128 H 0.0 **** 0.06
18965 H 109.7435437871571 13.800464485865543 14.76905664290615 H 0.0 **** 0.06
18966 C 63.83922006565123 8.36807329565265 38.541230220812594 C 0.0 **** -0.24
18967 H 62.77807375969061 8.433197919866927 38.78052676632221 H 0.0 **** 0.06
18968 H 64.42387594895627 8.746278115571982 39.38076537429927 H 0.0 **** 0.06
18969 H 64.04913042958097 8.964758561819224 37.65373099215364 H 0.0 **** 0.06
18970 H 64.10611751440058 7.327694981782017 38.35208117640909 H 0.0 **** 0.06
18971 C 116.44887631695873 112.52184360331277 80.99691299859663 C 0.0 **** -0.24
18972 H 115.43142836604483 112.77995958426328 80.701331469038 H 0.0 **** 0.06
18973 H 116.73645560293251 111.58187040984836 80.52456652315803 H 0.0 **** 0.06
18974 H 116.49643118987082 112.41479546676679 82.08012938500758 H 0.0 **** 0.06
18975 H 117.12915732924559 113.31114627015087 80.67867322660152 H 0.0 **** 0.06
18976 C 115.41218688394898 41.52386144572256 4.621488567189852 C 0.0 **** -0.24
18977 H 115.31973572917093 40.535316320065135 4.172951143420075 H 0.0 **** 0.06
18978 H 115.91929065808327 42.192352826252716 3.9244227790600323 H 0.0 **** 0.06
18979 H 115.99049443627196 41.452699357751385 5.543451681618391 H 0.0 **** 0.06
18980 H 114.42003074490275 41.915902360998075 4.844308367127184 H 0.0 **** 0.06
18981 C 54.708178242555704 85.16138234246873 97.97654043345554 C 0.0 **** -0.24
18982 H 55.52308926317402 84.4381847116305 97.9375428118226 H 0.0 **** 0.06
18983 H 53.78045952809332 84.6803065163426 97.6678519763723 H 0.0 **** 0.06
18984 H 54.927656513250774 85.99229579029299 97.30705882542387 H 0.0 **** 0.06
18985 H 54.60274985107992 85.53490431606076 98.99581313667827 H 0.0 **** 0.06
18986 C 16.573452915619754 40.904758700618274 59.756601444717354 C 0.0 **** -0.24
18987 H 17.509164703936243 41.01406742374047 60.303610165607886 H 0.0 **** 0.06
18988 H 15.735641729000736 41.02751469710404 60.44248329371087 H 0.0 **** 0.06
18989 H 16.53102052838477 39.913746982795885 59.30451644430743 H 0.0 **** 0.06
18990 H 16.51886221388504 41.662648562550245 58.97546038841809 H 0.0 **** 0.06
18991 C 87.6611604347641 13.378825334690632 29.909832573131105 C 0.0 **** -0.24
18992 H 87.53857796666927 13.031770731365981 30.93549780729795 H 0.0 **** 0.06
18993 H 86.69149524818727 13.669486744812382 29.50621281028795 H 0.0 **** 0.06
18994 H 88.08236108617581 12.577031735941752 29.302134710723116 H 0.0 **** 0.06
18995 H 88.33360893802211 14.237143277493828 29.895621764529963 H 0.0 **** 0.06
18996 C 107.98774325574013 43.18630329509244 6.258137027411806 C 0.0 **** -0.24
18997 H 108.30649468379215 42.891052273137745 5.258461114007204 H 0.0 **** 0.06
18998 H 108.73979225627104 43.83994666191336 6.701554773720744 H 0.0 **** 0.06
18999 H 107.86673512864002 42.29822706855458 6.8783331336875335 H 0.0 **** 0.06
19000 H 107.03694752089183 43.716885190950904 6.194631302436093 H 0.0 **** 0.06
19001 C 37.58265189025771 58.27334664308728 116.04852583626723 C 0.0 **** -0.24
19002 H 37.501142925766544 58.666978220930076 117.06228769643519 H 0.0 **** 0.06
19003 H 38.60693205862006 57.947889566686 115.8665274769487 H 0.0 **** 0.06
19004 H 37.31593885206459 59.052486133644635 115.33424410212962 H 0.0 **** 0.06
19005 H 36.905448766084604 57.42692017534441 115.93301934727992 H 0.0 **** 0.06
19006 C 117.14304626760804 40.78334704644237 74.36964879801064 C 0.0 **** -0.24
19007 H 118.22563015216238 40.66621178746243 74.41125401897776 H 0.0 **** 0.06
19008 H 116.78581271062836 40.507852467206334 73.37667217464491 H 0.0 **** 0.06
19009 H 116.88175312351856 41.82129338593907 74.57545659734441 H 0.0 **** 0.06
19010 H 116.67903257644335 40.13704162138126 75.11507028586539 H 0.0 **** 0.06
19011 C 78.124805030938 116.80449904336007 93.16741630730067 C 0.0 **** -0.24
19012 H 77.26611701337072 117.47599717193215 93.16119278553697 H 0.0 **** 0.06
19013 H 77.96356087317756 116.00222223670234 92.44663903332508 H 0.0 **** 0.06
19014 H 78.24568093406648 116.37852715058486 94.16446778699921 H 0.0 **** 0.06
19015 H 79.0221829821468 117.35993672580965 92.89857389236053 H 0.0 **** 0.06
19016 C 93.68385283437689 6.547786173632886 80.03572135865633 C 0.0 **** -0.24
19017 H 93.33367041582036 5.580614519534038 79.67509019731787 H 0.0 **** 0.06
19018 H 94.43645169628621 6.939683245347169 79.35102051265721 H 0.0 **** 0.06
19019 H 94.1196284556159 6.42965009557426 81.02788215824742 H 0.0 **** 0.06
19020 H 92.8436619029286 7.2412649798615405 80.08888153573628 H 0.0 **** 0.06
19021 C 111.71356602061694 111.6296370464157 101.6154134990629 C 0.0 **** -0.24
19022 H 111.97945264709557 110.6292281532329 101.95738124344868 H 0.0 **** 0.06
19023 H 112.34120455868357 112.36417921726814 102.11984607549297 H 0.0 **** 0.06
19024 H 110.66686467890645 111.82542792383057 101.84628521908166 H 0.0 **** 0.06
19025 H 111.86707240951694 111.69777217841244 100.53849476802131 H 0.0 **** 0.06
19026 C 117.73806653766415 97.41597907827807 51.90640110937201 C 0.0 **** -0.24
19027 H 116.70591722163866 97.22715042359152 52.20253812489986 H 0.0 **** 0.06
19028 H 118.18499193520499 96.49169711246552 51.54123804465692 H 0.0 **** 0.06
19029 H 118.30195677484555 97.77774185490159 52.76626974461976 H 0.0 **** 0.06
19030 H 117.75739730563532 98.16735186625917 51.116968511724735 H 0.0 **** 0.06
19031 C 57.4318962099961 78.29592457426565 81.72994200745859 C 0.0 **** -0.24
19032 H 58.07378673063744 78.34717877430438 82.60881291659973 H 0.0 **** 0.06
19033 H 56.538578511653895 77.71679370160092 81.96692212736434 H 0.0 **** 0.06
19034 H 57.971626559860766 77.81450387304514 80.9145354714891 H 0.0 **** 0.06
19035 H 57.14381798467667 79.30375480965162 81.43116999650249 H 0.0 **** 0.06
19036 C 44.800952887528396 33.59656378945027 30.33587741895974 C 0.0 **** -0.24
19037 H 44.584257452699745 34.58495098338474 30.74035903247153 H 0.0 **** 0.06
19038 H 43.93063407585737 33.22758362613553 29.791736382691568 H 0.0 **** 0.06
19039 H 45.036406638285285 32.912986128498716 31.15222093875076 H 0.0 **** 0.06
19040 H 45.652880063797 33.659675427080714 29.658330653410133 H 0.0 **** 0.06
19041 C 66.30410964312543 92.5594650244264 105.51195562008851 C 0.0 **** -0.24
19042 H 67.24778274900191 92.12531249420272 105.18363695974384 H 0.0 **** 0.06
19043 H 65.80876163508634 91.87294441367979 106.19902651082063 H 0.0 **** 0.06
19044 H 65.66354659377006 92.73232221699831 104.64669150683747 H 0.0 **** 0.06
19045 H 66.49540839724222 93.50535720799058 106.01782149219667 H 0.0 **** 0.06
19046 C 115.34899526772423 111.87854880051799 70.2900691158516 C 0.0 **** -0.24
19047 H 115.73647674430109 111.03008211430273 70.85333362759638 H 0.0 **** 0.06
19048 H 116.14700485892854 112.30722834970683 69.68433809457545 H 0.0 **** 0.06
19049 H 114.97280296582576 112.63249058261077 70.98265470587049 H 0.0 **** 0.06
19050 H 114.53893361733512 111.54529593680789 69.64209599644562 H 0.0 **** 0.06
19051 C 75.9360098218628 27.681908000754504 100.44944536412302 C 0.0 **** -0.24
19052 H 76.6956272414815 27.725027338935888 101.23008976352222 H 0.0 **** 0.06
19053 H 76.12578274740073 28.46585059176573 99.7160397184544 H 0.0 **** 0.06
19054 H 74.9510918455072 27.828669957809836 100.8925131533561 H 0.0 **** 0.06
19055 H 75.97354768983863 26.709044908088515 99.95894877751851 H 0.0 **** 0.06
19056 C 67.58092812486797 110.02079962343318 31.364434802819744 C 0.0 **** -0.24
19057 H 66.55030658535321 110.29083499277863 31.592824079211454 H 0.0 **** 0.06
19058 H 68.18835713966246 110.11105502817881 32.26532689371285 H 0.0 **** 0.06
19059 H 67.96995542380927 110.68875903860089 30.59497678839125 H 0.0 **** 0.06
19060 H 67.61513122013474 108.99251913492674 31.003198026823043 H 0.0 **** 0.06
19061 C 52.05689108430746 53.54484246612954 76.74239009746009 C 0.0 **** -0.24
19062 H 52.98134596910825 53.419019088069504 76.17820019047448 H 0.0 **** 0.06
19063 H 52.143515302609714 54.41645618377517 77.39103509480287 H 0.0 **** 0.06
19064 H 51.87932717153986 52.65727121540813 77.34864072859176 H 0.0 **** 0.06
19065 H 51.22646898219321 53.686297721350776 76.05111224044225 H 0.0 **** 0.06
19066 C 21.261923442579644 50.86613961709145 20.60325878177528 C 0.0 **** -0.24
19067 H 21.48605768784131 51.834564516074806 20.157384861085006 H 0.0 **** 0.06
19068 H 22.147609507413847 50.23199432254984 20.559813061944823 H 0.0 **** 0.06
19069 H 20.448036339374767 50.39259606691738 20.05363445914105 H 0.0 **** 0.06
19070 H 20.96519795333961 51.00487675972295 21.64251068279819 H 0.0 **** 0.06
19071 C 24.969180306972447 7.972608515231798 66.97885151106297 C 0.0 **** -0.24
19072 H 23.936446502788314 7.992592345814671 67.32456527858113 H 0.0 **** 0.06
19073 H 25.534246283149002 7.245514965246727 67.56245754957291 H 0.0 **** 0.06
19074 H 25.413532541540917 8.961154830325967 67.10242315636646 H 0.0 **** 0.06
19075 H 24.994393913801673 7.692514400747058 65.92518828208952 H 0.0 **** 0.06
19076 C 62.53494850454666 45.22009150583821 68.29789099464682 C 0.0 **** -0.24
19077 H 61.957972488859696 45.88579262326161 67.65606448939837 H 0.0 **** 0.06
19078 H 61.87262119557005 44.75409313249003 69.0269860368644 H 0.0 **** 0.06
19079 H 63.303726812784475 45.79231376194198 68.8179950440699 H 0.0 **** 0.06
19080 H 63.00728425588096 44.448601141660646 67.68892696803033 H 0.0 **** 0.06
19081 C 85.88656894223817 79.2413941916925 60.508738321695375 C 0.0 **** -0.24
19082 H 85.20366443287236 80.09049833246297 60.4901336489346 H 0.0 **** 0.06
19083 H 85.84990260073039 78.72414699434682 59.54952117358317 H 0.0 **** 0.06
19084 H 85.59345676886034 78.55594116824568 61.3039068402021 H 0.0 **** 0.06
19085 H 86.90205437783641 79.59594057100634 60.6918855359192 H 0.0 **** 0.06
19086 C 78.76735241597618 80.7257014427436 66.5289568162284 C 0.0 **** -0.24
19087 H 78.10207357531999 81.49499304790382 66.9221935319112 H 0.0 **** 0.06
19088 H 79.76911024724882 81.13864614090917 66.41095476114083 H 0.0 **** 0.06
19089 H 78.39778172323471 80.38675147334118 65.56131485100963 H 0.0 **** 0.06
19090 H 78.79913901713584 79.88445279161235 67.22098344821171 H 0.0 **** 0.06
19091 C 5.40344322457284 83.86543764224967 31.869650192228875 C 0.0 **** -0.24
19092 H 6.22590437525605 83.39238493933823 32.40623324028027 H 0.0 **** 0.06
19093 H 5.802320098552315 84.60823144637732 31.177326356498554 H 0.0 **** 0.06
19094 H 4.736566078132597 84.35132900980855 32.58058120896955 H 0.0 **** 0.06
19095 H 4.851570038214248 83.10927838770942 31.311809082673605 H 0.0 **** 0.06
19096 C 15.04675100329328 114.14477148338263 74.10936159315779 C 0.0 **** -0.24
19097 H 14.757656876802884 113.44627363563202 73.32444001672911 H 0.0 **** 0.06
19098 H 15.478627874649902 115.0392731665052 73.65901422078372 H 0.0 **** 0.06
19099 H 15.782251900276322 113.67476457498357 74.76124074637531 H 0.0 **** 0.06
19100 H 14.16693881137681 114.4197964262823 74.69147874996972 H 0.0 **** 0.06
19101 C 83.171692351561 77.51331008165204 77.90823850054471 C 0.0 **** -0.24
19102 H 82.1646599806613 77.71950768605245 77.54746177685362 H 0.0 **** 0.06
19103 H 83.193674867098 76.53172409282922 78.38225571434924 H 0.0 **** 0.06
19104 H 83.46109318942877 78.27417444161375 78.63328137152948 H 0.0 **** 0.06
19105 H 83.86752296937098 77.526672251214 77.06916949853834 H 0.0 **** 0.06
19106 C 88.29458967779945 2.309367743968494 71.17034630932622 C 0.0 **** -0.24
19107 H 88.965783804268 3.027164540816102 71.64425020467132 H 0.0 **** 0.06
19108 H 88.88214559854342 1.558497482611699 70.64085926046786 H 0.0 **** 0.06
19109 H 87.64733304328465 2.830396049256251 70.46495073443936 H 0.0 **** 0.06
19110 H 87.68602065426157 1.8243420407064832 71.9326922297613 H 0.0 **** 0.06
19111 C 52.93777387433107 27.25740318489983 49.419000962544885 C 0.0 **** -0.24
19112 H 51.89856656476309 26.934418694813587 49.36183696070694 H 0.0 **** 0.06
19113 H 53.5458803655427 26.642345563605943 48.75444826956121 H 0.0 **** 0.06
19114 H 53.29525122549478 27.148611339631316 50.442601863771415 H 0.0 **** 0.06
19115 H 53.01095499610466 28.30205413090124 49.11691904969959 H 0.0 **** 0.06
19116 C 116.52487606162606 8.516494552340593 10.056209153473674 C 0.0 **** -0.24
19117 H 115.85016164356063 9.061028068800805 9.39498126232607 H 0.0 **** 0.06
19118 H 117.34913745582993 9.16778250877707 10.349111518674164 H 0.0 **** 0.06
19119 H 116.91837542773537 7.644654539142593 9.533486651234483 H 0.0 **** 0.06
19120 H 115.98233332256308 8.193962571096804 10.94467921287304 H 0.0 **** 0.06
19121 C 19.424090743234444 14.712363860777419 51.69886537756903 C 0.0 **** -0.24
19122 H 19.820731072436573 13.738108117739337 51.985106158906994 H 0.0 **** 0.06
19123 H 18.557461578186306 14.948362281500273 52.31706053446753 H 0.0 **** 0.06
19124 H 19.127046454991742 14.690168868292936 50.64995799792143 H 0.0 **** 0.06
19125 H 20.19112386732303 15.472816175577197 51.84333681898001 H 0.0 **** 0.06
19126 C 10.636039412181844 116.38483139650867 37.04892183961144 C 0.0 **** -0.24
19127 H 11.171708850385642 117.0326114054302 36.35549423614128 H 0.0 **** 0.06
19128 H 9.917539036944476 115.77793642188323 36.49739640286208 H 0.0 **** 0.06
19129 H 10.109369030148997 116.99465624108484 37.78372290190865 H 0.0 **** 0.06
19130 H 11.345540731248377 115.73412151763665 37.55907381753366 H 0.0 **** 0.06
19131 C 17.179684882725923 28.615075107223447 71.91953485989441 C 0.0 **** -0.24
19132 H 16.81180807619154 29.10474453414676 71.01685596665959 H 0.0 **** 0.06
19133 H 17.99472385807465 29.20205571743243 72.34392129945658 H 0.0 **** 0.06
19134 H 17.541301259197056 27.61859729715441 71.669824984923 H 0.0 **** 0.06
19135 H 16.370476794659467 28.537890456080106 72.64532569516581 H 0.0 **** 0.06
19136 C 46.36418896149264 64.98248393221516 26.70482470298589 C 0.0 **** -0.24
19137 H 45.781351213636825 65.23432464220926 25.819744542041775 H 0.0 **** 0.06
19138 H 45.9152532358677 65.45249829430685 27.580926805883422 H 0.0 **** 0.06
19139 H 47.385808133561 65.34386191081515 26.582008303073763 H 0.0 **** 0.06
19140 H 46.375053110288576 63.901034792832256 26.837765489844543 H 0.0 **** 0.06
19141 C 62.48251559991963 116.67904562355416 56.096437060943344 C 0.0 **** -0.24
19142 H 63.52259646974061 117.00564801305343 56.09356430624729 H 0.0 **** 0.06
19143 H 62.13392185206204 116.57003668180563 55.06915567094876 H 0.0 **** 0.06
19144 H 61.87100250745225 117.41999264825489 56.61132909946292 H 0.0 **** 0.06
19145 H 62.4038640747662 115.72084043872239 56.61132676733837 H 0.0 **** 0.06
19146 C 63.34887161205938 91.11409642794294 29.0865702564559 C 0.0 **** -0.24
19147 H 62.44195726593702 90.57481740522962 28.812513524325084 H 0.0 **** 0.06
19148 H 63.099931925126214 92.15151499209574 29.31287403788218 H 0.0 **** 0.06
19149 H 64.05455838955632 91.08277144283218 28.255799199988303 H 0.0 **** 0.06
19150 H 63.79805294818672 90.64753705376035 29.962866440408618 H 0.0 **** 0.06
19151 C 76.59703331592854 48.47757938439585 101.88235613658543 C 0.0 **** -0.24
19152 H 75.64615830861135 49.00953424916045 101.84202810211124 H 0.0 **** 0.06
19153 H 77.08265864890669 48.52662018282729 100.9077415431409 H 0.0 **** 0.06
19154 H 76.41894889770651 47.435253068892564 102.14799385505023 H 0.0 **** 0.06
19155 H 77.23987255459573 48.938828838076915 102.63298340889557 H 0.0 **** 0.06
19156 C 9.59908818946235 28.52843475469509 88.16656016673636 C 0.0 **** -0.24
19157 H 9.871582445236527 29.198909503067455 87.35069550945121 H 0.0 **** 0.06
19158 H 8.675885569376419 28.87589521604832 88.62874371682364 H 0.0 **** 0.06
19159 H 10.397318765495157 28.519017941229734 88.90928951682162 H 0.0 **** 0.06
19160 H 9.454937452983017 27.520901757570897 87.77535249366332 H 0.0 **** 0.06
19161 C 23.259584262890087 83.26400181465246 53.21166249479313 C 0.0 **** -0.24
19162 H 24.038884273286655 83.0887640999184 52.46956287680561 H 0.0 **** 0.06
19163 H 23.04477795040107 82.33440266733817 53.738262165734625 H 0.0 **** 0.06
19164 H 22.357157713143323 83.61748930606663 52.71416032317825 H 0.0 **** 0.06
19165 H 23.600462120872038 84.01580938861713 53.92432180803897 H 0.0 **** 0.06
19166 C 18.771292774584765 19.776861160211467 16.862006997021723 C 0.0 **** -0.24
19167 H 18.29425431541793 19.384847812068983 17.760462579486898 H 0.0 **** 0.06
19168 H 19.672297927390787 19.20170853556695 16.64870031011816 H 0.0 **** 0.06
19169 H 19.035901179598454 20.822681973443366 17.020076049746535 H 0.0 **** 0.06
19170 H 18.081483556775368 19.698937532965573 16.02209707509914 H 0.0 **** 0.06
19171 C 16.658497838115835 88.104828390313 7.929375781727913 C 0.0 **** -0.24
19172 H 16.100374048496604 87.28448191909655 7.477329198218342 H 0.0 **** 0.06
19173 H 17.293215589827184 87.71578676841409 8.725519336054504 H 0.0 **** 0.06
19174 H 15.960906253622568 88.8331586067473 8.342296617993043 H 0.0 **** 0.06
19175 H 17.277023297034674 88.58367285411799 7.170947310825369 H 0.0 **** 0.06
19176 C 47.15677502412845 28.35362872434326 37.464703998489654 C 0.0 **** -0.24
19177 H 48.23088073469856 28.37150414544749 37.64940906928558 H 0.0 **** 0.06
19178 H 46.62831788295808 28.67581194945967 38.362716621006655 H 0.0 **** 0.06
19179 H 46.849991132027085 27.33960575609413 37.20697027420357 H 0.0 **** 0.06
19180 H 46.91900246436993 29.025578856639534 36.64058644180855 H 0.0 **** 0.06
19181 C 114.02153015715965 79.23527342646253 89.5959312321466 C 0.0 **** -0.24
19182 H 114.2193176534235 79.6040894220319 88.58939437426542 H 0.0 **** 0.06
19183 H 114.93384625943905 79.29288318142395 90.1894428181852 H 0.0 **** 0.06
19184 H 113.68656419140154 78.1992431323053 89.54266193579556 H 0.0 **** 0.06
19185 H 113.24608333826544 79.84382121229893 90.06027953218944 H 0.0 **** 0.06
19186 C 45.725526821893595 97.5598841357135 94.03354811271825 C 0.0 **** -0.24
19187 H 46.281831501095326 97.46425611251561 94.96543860631618 H 0.0 **** 0.06
19188 H 45.2877474906567 98.55676040578442 93.97299577377953 H 0.0 **** 0.06
19189 H 44.93248768649556 96.81208316056518 94.00595742653718 H 0.0 **** 0.06
19190 H 46.39954577053203 97.40616489118679 93.19109728701221 H 0.0 **** 0.06
19191 C 97.3521508865525 35.2741665853645 4.642923923815971 C 0.0 **** -0.24
19192 H 97.46039840822652 35.06879524546372 3.578672748725694 H 0.0 **** 0.06
19193 H 98.28711297232556 35.04115909617778 5.15452640547376 H 0.0 **** 0.06
19194 H 96.5511040270375 34.65946397751671 5.052274804473825 H 0.0 **** 0.06
19195 H 97.11185447816041 36.32706884260628 4.7874403276416615 H 0.0 **** 0.06
19196 C 38.496733856072325 48.434267670106806 110.53205003490811 C 0.0 **** -0.24
19197 H 38.43433778820876 49.349600419573676 109.94468032394676 H 0.0 **** 0.06
19198 H 37.52602244179675 47.937865196110465 110.53710369511228 H 0.0 **** 0.06
19199 H 38.78568917498709 48.676842702577005 111.55465540551964 H 0.0 **** 0.06
19200 H 39.24224538791517 47.77075220582037 110.0920949900557 H 0.0 **** 0.06
19201 C 7.65886125078606 58.883152499274466 44.72381682117174 C 0.0 **** -0.24
19202 H 6.6094501529692735 59.16767675729876 44.65077689102151 H 0.0 **** 0.06
19203 H 8.25075419965971 59.49892781915684 44.045313935430045 H 0.0 **** 0.06
19204 H 7.770307718464409 57.83308921533506 44.45331476769121 H 0.0 **** 0.06
19205 H 8.005319371259745 59.03380796790754 45.74609723833311 H 0.0 **** 0.06
19206 C 104.01309349821778 50.964233877249654 7.3802264366646 C 0.0 **** -0.24
19207 H 103.96577321937636 51.98297468461795 6.99545958684601 H 0.0 **** 0.06
19208 H 104.71437995396738 50.38226274813032 6.782483630139154 H 0.0 **** 0.06
19209 H 103.02449028530177 50.50938707262883 7.32637865564692 H 0.0 **** 0.06
19210 H 104.3472207885105 50.98323427789408 8.417957882613763 H 0.0 **** 0.06
19211 C 38.90997330659218 20.27101073566547 24.062514097704913 C 0.0 **** -0.24
19212 H 38.256616163692485 20.86831115536637 24.69870922371986 H 0.0 **** 0.06
19213 H 38.734618222139886 20.529457365600308 23.017484149523128 H 0.0 **** 0.06
19214 H 38.69776390874199 19.213026294964834 24.216639581857272 H 0.0 **** 0.06
19215 H 39.95074206138682 20.474170038365287 24.317579480849794 H 0.0 **** 0.06
19216 C 20.630783979502155 55.84561642199151 53.51096021349002 C 0.0 **** -0.24
19217 H 21.369107602574104 55.85106077228278 52.70842409525761 H 0.0 **** 0.06
19218 H 21.004069397519885 55.248083202870475 54.34317873592994 H 0.0 **** 0.06
19219 H 19.699342437627195 55.41609044400218 53.14350055723946 H 0.0 **** 0.06
19220 H 20.452302359117425 56.86707364922671 53.84647175657017 H 0.0 **** 0.06
19221 C 58.337775985839784 89.40387972704772 59.75332963373311 C 0.0 **** -0.24
19222 H 58.501015074850045 88.57211420744841 59.06786723262643 H 0.0 **** 0.06
19223 H 57.64465733608918 89.09808394592213 60.53662205032561 H 0.0 **** 0.06
19224 H 57.918309413131084 90.24856424901955 59.205187747527766 H 0.0 **** 0.06
19225 H 59.286915733483 89.69760709980875 60.20135365697467 H 0.0 **** 0.06
19226 C 0.5789513080851094 63.749752315358734 52.47984927237363 C 0.0 **** -0.24
19227 H 1.0025802054023814 64.31693501569143 53.308289296769004 H 0.0 **** 0.06
19228 H 0.662427083117592 62.68306787946054 52.69038843132043 H 0.0 **** 0.06
19229 H 1.120978454305913 63.982842997403935 51.563520260909286 H 0.0 **** 0.06
19230 H -0.47114337570437215 64.01457170319804 52.35793376039189 H 0.0 **** 0.06
19231 C 93.47100704199264 83.64268213507833 31.690486816755424 C 0.0 **** -0.24
19232 H 93.47417202150831 82.67484889881408 31.18847046667497 H 0.0 **** 0.06
19233 H 92.48744424642277 84.10198629705903 31.585875377228433 H 0.0 **** 0.06
19234 H 94.2231992054783 84.28941413775473 31.237224953087093 H 0.0 **** 0.06
19235 H 93.69798622632149 83.50505379256435 32.746888426662906 H 0.0 **** 0.06
19236 C 78.21876339347892 59.0240930578445 62.90829601072891 C 0.0 **** -0.24
19237 H 79.19378698179474 58.54423910660163 62.824148808731614 H 0.0 **** 0.06
19238 H 77.87522354551754 59.324777592180276 61.91829359747023 H 0.0 **** 0.06
19239 H 78.3016614185126 59.904552847816966 63.54631568619717 H 0.0 **** 0.06
19240 H 77.50530816312397 58.325472276491006 63.34454956843589 H 0.0 **** 0.06
19241 C 43.545245587518906 49.999744086603926 59.17754188365646 C 0.0 **** -0.24
19242 H 43.31067649055251 48.93880001992008 59.088746505519936 H 0.0 **** 0.06
19243 H 42.81522251128635 50.58194324659755 58.613540885587184 H 0.0 **** 0.06
19244 H 44.54287643914898 50.18533128725434 58.781509620785414 H 0.0 **** 0.06
19245 H 43.51012407207244 50.29216462657553 60.226715006330494 H 0.0 **** 0.06
19246 C 33.22707415484635 116.01063552850007 103.3095796264966 C 0.0 **** -0.24
19247 H 33.79866337295667 116.67169801618698 103.96001766761691 H 0.0 **** 0.06
19248 H 33.726910243390506 115.93058866379405 102.34394409070066 H 0.0 **** 0.06
19249 H 32.22555891294829 116.4180279698108 103.16815388294702 H 0.0 **** 0.06
19250 H 33.15642728418712 115.0234203461209 103.76601775145525 H 0.0 **** 0.06
19251 C 3.4539728715707643 85.09156278279718 35.81111724982128 C 0.0 **** -0.24
19252 H 4.477503229009196 84.71869323053139 35.85811211825347 H 0.0 **** 0.06
19253 H 2.8160220938372333 84.4824994429957 36.452711599230156 H 0.0 **** 0.06
19254 H 3.0948866350418083 85.03618896373851 34.78399051982257 H 0.0 **** 0.06
19255 H 3.4286530876626955 86.12701320547293 36.15007576628619 H 0.0 **** 0.06
19256 C 47.66141682294062 50.29136087093258 23.676600525360527 C 0.0 **** -0.24
19257 H 47.88369547974176 51.337301960322975 23.888812742082223 H 0.0 **** 0.06
19258 H 48.42437385425853 49.88535957811382 23.01308636991672 H 0.0 **** 0.06
19259 H 46.68567024254045 50.21792081621555 23.197125087383398 H 0.0 **** 0.06
19260 H 47.65177591108315 49.72693922321429 24.60866585843118 H 0.0 **** 0.06
19261 C 101.84685367968672 34.08130784588129 15.783130203368717 C 0.0 **** -0.24
19262 H 102.3189625637039 35.003800759913624 16.11898509916812 H 0.0 **** 0.06
19263 H 102.45827534664483 33.228958571778584 16.081530779873685 H 0.0 **** 0.06
19264 H 101.74984059144921 34.096697828653966 14.69730231109973 H 0.0 **** 0.06
19265 H 100.85836987417218 33.9947095480749 16.234718617083676 H 0.0 **** 0.06
19266 C 27.540935170859896 3.6189746215185483 24.202797577295144 C 0.0 **** -0.24
19267 H 26.804542736718645 4.064300111697525 23.533658598002518 H 0.0 **** 0.06
19268 H 27.129336455276203 3.564012931613462 25.210914790822358 H 0.0 **** 0.06
19269 H 28.44200007549648 4.232635800252513 24.210320279196026 H 0.0 **** 0.06
19270 H 27.788031251950486 2.6162926513421247 23.85521605859188 H 0.0 **** 0.06
19271 C 53.781034837522 42.714392904945875 100.40544302072394 C 0.0 **** -0.24
19272 H 53.14155771839816 43.0777194985901 101.20915833040607 H 0.0 **** 0.06
19273 H 54.40153331528854 41.8979878309794 100.77593999044149 H 0.0 **** 0.06
19274 H 54.4197655432753 43.52509007913579 100.05454594156626 H 0.0 **** 0.06
19275 H 53.16283930391233 42.35728604005066 99.58268944196266 H 0.0 **** 0.06
19276 C 80.95534806348275 89.3069066041121 54.41317594516522 C 0.0 **** -0.24
19277 H 81.19363005179554 90.17876652571991 55.0227565912038 H 0.0 **** 0.06
19278 H 81.61156618010773 88.48088462177384 54.68865930160018 H 0.0 **** 0.06
19279 H 81.09864892168844 89.55023096115437 53.36047860999827 H 0.0 **** 0.06
19280 H 79.91773911748248 89.0186669975474 54.58114369018685 H 0.0 **** 0.06
19281 C 45.686677648882835 32.88078459047051 96.68248811629914 C 0.0 **** -0.24
19282 H 44.77332057698533 33.10485747079508 97.23476418040102 H 0.0 **** 0.06
19283 H 46.12814201906281 33.81046738167592 96.32049666348993 H 0.0 **** 0.06
19284 H 45.450532269516145 32.23653918105751 95.83586201723458 H 0.0 **** 0.06
19285 H 46.39288813672812 32.374153756826416 97.3394374669871 H 0.0 **** 0.06
19286 C 30.88482719078823 91.93299897530667 10.946858876755925 C 0.0 **** -0.24
19287 H 31.377455222112786 92.77308107500303 10.458847433926593 H 0.0 **** 0.06
19288 H 31.139613915698277 91.00930787447155 10.426012334671412 H 0.0 **** 0.06
19289 H 29.804270740655653 92.0800137268682 10.919216517198464 H 0.0 **** 0.06
19290 H 31.216301766796647 91.86912330424761 11.983367480300558 H 0.0 **** 0.06
19291 C 101.88201292172164 70.04085173734993 30.89295420693638 C 0.0 **** -0.24
19292 H 100.88633510384565 69.7019035833672 30.606312584125988 H 0.0 **** 0.06
19293 H 102.63235220208088 69.45825089260933 30.357081202822513 H 0.0 **** 0.06
19294 H 102.01610590825828 69.90825690663613 31.965835917690328 H 0.0 **** 0.06
19295 H 101.99263632387499 71.09506842576536 30.640440517600695 H 0.0 **** 0.06
19296 C 108.63504052427595 18.24341199445938 55.59727495386193 C 0.0 **** -0.24
19297 H 107.60851086861427 18.340873038238055 55.9485706930397 H 0.0 **** 0.06
19298 H 108.78196886606 17.24855119064829 55.17723377349142 H 0.0 **** 0.06
19299 H 109.32036085582595 18.389727617240382 56.43257513444274 H 0.0 **** 0.06
19300 H 108.83067994097544 18.993892224617845 54.831609105893165 H 0.0 **** 0.06
19301 C 84.3340893145706 98.97428652398014 78.12379344441834 C 0.0 **** -0.24
19302 H 84.81493808471669 98.09297905175902 78.5473015559979 H 0.0 **** 0.06
19303 H 83.44499270540896 99.21770329747278 78.70628732274758 H 0.0 **** 0.06
19304 H 84.04804835803742 98.77103201497857 77.09222779182045 H 0.0 **** 0.06
19305 H 85.02799616119364 99.81505728575752 78.151004553896 H 0.0 **** 0.06
19306 C 17.160165721997686 93.5778425585099 79.7621335738944 C 0.0 **** -0.24
19307 H 16.508455333091433 94.12706498063332 79.08372382901581 H 0.0 **** 0.06
19308 H 17.912994924085183 93.03962601903066 79.18737915642348 H 0.0 **** 0.06
19309 H 16.567592853115173 92.86846424997336 80.34084373258659 H 0.0 **** 0.06
19310 H 17.651286000325996 94.27748484856838 80.43928508838385 H 0.0 **** 0.06
19311 C 91.440781538469 18.699507135413512 102.63592518221165 C 0.0 **** -0.24
19312 H 91.1709999542991 17.750905441942933 102.17215555168042 H 0.0 **** 0.06
19313 H 90.69942482374586 19.454774472379825 102.37484656145878 H 0.0 **** 0.06
19314 H 92.42128827608272 19.012699209577306 102.27628526003343 H 0.0 **** 0.06
19315 H 91.47307774376736 18.57809627665074 103.71821852114996 H 0.0 **** 0.06
19316 C 109.73869803994299 103.8116899710858 84.46089447749165 C 0.0 **** -0.24
19317 H 109.72015267729579 103.9108357621287 83.37633989007861 H 0.0 **** 0.06
19318 H 108.71874014997061 103.83811586772228 84.84545941445958 H 0.0 **** 0.06
19319 H 110.31155953010018 104.63281435910534 84.89162642723431 H 0.0 **** 0.06
19320 H 110.20384736411073 102.86382648356857 84.73078048646965 H 0.0 **** 0.06
19321 C 85.43924490322016 108.60054782789203 16.291568097746975 C 0.0 **** -0.24
19322 H 86.30527275041038 107.93989200381583 16.345376026461224 H 0.0 **** 0.06
19323 H 85.42249572478414 109.24715763176985 17.169072407202037 H 0.0 **** 0.06
19324 H 84.5281932128764 108.00306024586328 16.261819758038985 H 0.0 **** 0.06
19325 H 85.50288945007918 109.21118969356135 15.391309017444371 H 0.0 **** 0.06
19326 C 76.48966993125649 85.56136740061095 13.448317774022144 C 0.0 **** -0.24
19327 H 76.24822896532342 85.1322516462721 14.420968030192569 H 0.0 **** 0.06
19328 H 77.45694758170748 85.18393802737748 13.115208723837497 H 0.0 **** 0.06
19329 H 76.53170019504748 86.64704196946755 13.53091140804986 H 0.0 **** 0.06
19330 H 75.72306105248492 85.28106179209351 12.727199853824231 H 0.0 **** 0.06
19331 C 49.10162309032748 59.209207770839924 58.02465114245558 C 0.0 **** -0.24
19332 H 49.4357113944034 58.95168465103376 57.01954397342803 H 0.0 **** 0.06
19333 H 49.3870610264955 58.41687199571521 58.7169767895071 H 0.0 **** 0.06
19334 H 48.01726798396369 59.32330605337896 58.02784464966027 H 0.0 **** 0.06
19335 H 49.5664412838108 60.146286787165366 58.33173672528403 H 0.0 **** 0.06
19336 C 50.02591330447456 50.06866300384672 118.60571193654162 C 0.0 **** -0.24
19337 H 50.69120971773259 50.93169961821138 118.64479013119121 H 0.0 **** 0.06
19338 H 49.66324554630398 49.93463665957 117.58634466484148 H 0.0 **** 0.06
19339 H 49.180760589999664 50.23061998059046 119.27388656180034 H 0.0 **** 0.06
19340 H 50.57067891736082 49.17723530891027 118.91870033158374 H 0.0 **** 0.06
19341 C 42.57433390326946 15.925228490630793 77.27372379841984 C 0.0 **** -0.24
19342 H 41.82484017527139 15.890797644699589 78.06515876582293 H 0.0 **** 0.06
19343 H 43.15387273691363 15.00201550505934 77.28215599469459 H 0.0 **** 0.06
19344 H 43.237501904097144 16.774330367402246 77.43844405468366 H 0.0 **** 0.06
19345 H 42.07786198868922 16.034323101779936 76.3088618156425 H 0.0 **** 0.06
19346 C 59.7322040142019 107.80620221389506 102.97563087686709 C 0.0 **** -0.24
19347 H 60.31762812789134 108.26233180048894 102.17620916154291 H 0.0 **** 0.06
19348 H 59.33382346387714 106.84998299283032 102.63359078877221 H 0.0 **** 0.06
19349 H 58.90799101328844 108.46780676468808 103.24385274160295 H 0.0 **** 0.06
19350 H 60.36850289728187 107.64542706932582 103.84592200930805 H 0.0 **** 0.06
19351 C 78.68607135851846 37.36278940470885 115.77305586171462 C 0.0 **** -0.24
19352 H 78.12096045122416 37.49527606033689 114.84964879844831 H 0.0 **** 0.06
19353 H 79.46660690267072 36.61746784338612 115.61710824291058 H 0.0 **** 0.06
19354 H 78.01523284504378 37.02825267846288 116.56359957736562 H 0.0 **** 0.06
19355 H 79.14057716550803 38.31135075530699 116.05908104913148 H 0.0 **** 0.06
19356 C 49.92353647109735 45.88683594134022 80.34374180369798 C 0.0 **** -0.24
19357 H 49.097751902382214 45.711778445933646 81.03348762718429 H 0.0 **** 0.06
19358 H 50.80967934955672 46.18314815197135 80.90562211167111 H 0.0 **** 0.06
19359 H 49.651975152757245 46.679968443375344 79.64734979186159 H 0.0 **** 0.06
19360 H 50.133812383695414 44.97264746116974 79.78882557578476 H 0.0 **** 0.06
19361 C 105.25849163741515 46.30516561874856 55.175631791579235 C 0.0 **** -0.24
19362 H 105.30786202795807 45.75326907517342 56.114081212824345 H 0.0 **** 0.06
19363 H 104.38822759854511 46.962557025560386 55.187785060570576 H 0.0 **** 0.06
19364 H 105.17262011820168 45.603845714644194 54.345943287091956 H 0.0 **** 0.06
19365 H 106.16246474559722 46.90123129539808 55.057196984537995 H 0.0 **** 0.06
19366 C 48.955894198370785 55.97979964437004 85.25515281891572 C 0.0 **** -0.24
19367 H 48.76131688708122 55.58476773473894 86.25296598469293 H 0.0 **** 0.06
19368 H 49.039775665054684 57.06581597385186 85.30441789024022 H 0.0 **** 0.06
19369 H 48.13587103422568 55.707271397609055 84.59126661159883 H 0.0 **** 0.06
19370 H 49.88707885365622 55.559742054641724 84.87531033505081 H 0.0 **** 0.06
19371 C 1.998470126760978 29.60724230095164 64.82137163615664 C 0.0 **** -0.24
19372 H 1.428897678400574 30.315139234438703 65.42291272760059 H 0.0 **** 0.06
19373 H 1.3121536456650347 28.966682214980665 64.26740679935727 H 0.0 **** 0.06
19374 H 2.6214961579043603 28.99553578012072 65.47326136571775 H 0.0 **** 0.06
19375 H 2.632005047840039 30.153950444340126 64.12218901473432 H 0.0 **** 0.06
19376 C 64.97284303540073 84.46914671579748 82.65244337451745 C 0.0 **** -0.24
19377 H 64.82242170677534 83.77590360949128 81.8247441536895 H 0.0 **** 0.06
19378 H 66.00197605771154 84.39723443312289 83.00253099458891 H 0.0 **** 0.06
19379 H 64.29297949327929 84.21558900028361 83.46540805893679 H 0.0 **** 0.06
19380 H 64.77381807898644 85.48608667392043 82.31447776763488 H 0.0 **** 0.06
19381 C 104.7313427424211 4.324347082874084 23.122182724183688 C 0.0 **** -0.24
19382 H 104.81986853791838 3.237695641794687 23.094479380575308 H 0.0 **** 0.06
19383 H 105.69716311519593 4.773377875363423 22.886227131201224 H 0.0 **** 0.06
19384 H 104.41898800507906 4.63650483619611 24.118307001403764 H 0.0 **** 0.06
19385 H 103.99046911053918 4.646458054631779 22.390948624346436 H 0.0 **** 0.06
19386 C 64.18588189648361 96.32126656525782 50.677170931688266 C 0.0 **** -0.24
19387 H 64.9769489885636 96.65905618502597 51.34674512819373 H 0.0 **** 0.06
19388 H 63.21607139635808 96.5027568326812 51.14106798839903 H 0.0 **** 0.06
19389 H 64.30330417970686 95.255439225558 50.4835124426259 H 0.0 **** 0.06
19390 H 64.24778812588136 96.86996706426214 49.73720871448729 H 0.0 **** 0.06
19391 C 33.28511616383119 72.5820087565734 0.8024246429497595 C 0.0 **** -0.24
19392 H 32.71166222827259 72.30909323968311 -0.08366637738805593 H 0.0 **** 0.06
19393 H 33.476229139850716 71.6903640879404 1.4001672533811984 H 0.0 **** 0.06
19394 H 32.7179188294304 73.30194244444652 1.392589238957612 H 0.0 **** 0.06
19395 H 34.23214758262776 73.02684069966239 0.49822642580602405 H 0.0 **** 0.06
19396 C 41.87911279593851 61.49272926803721 69.2749334829436 C 0.0 **** -0.24
19397 H 42.73172612517851 61.45686874344523 69.95383123917398 H 0.0 **** 0.06
19398 H 40.96613963685522 61.27301380231057 69.82803715465096 H 0.0 **** 0.06
19399 H 42.0126740733412 60.75258841598887 68.48558469463245 H 0.0 **** 0.06
19400 H 41.80778046360044 62.48590791117621 68.83371773429036 H 0.0 **** 0.06
19401 C 66.85623151290736 59.737815538891056 42.69335778561472 C 0.0 **** -0.24
19402 H 66.67670880140912 59.8599464263487 41.62598010445846 H 0.0 **** 0.06
19403 H 67.9167442404806 59.87679098007723 42.90181188772057 H 0.0 **** 0.06
19404 H 66.5534308508804 58.735965973702264 43.001071764410774 H 0.0 **** 0.06
19405 H 66.27674663658925 60.477456346146454 43.24682719563485 H 0.0 **** 0.06
19406 C 83.17590487855335 74.50685416139589 40.224335329671355 C 0.0 **** -0.24
19407 H 82.91643469763272 73.60884014202708 40.78407951664474 H 0.0 **** 0.06
19408 H 84.2596414711777 74.62228502772126 40.205433322317795 H 0.0 **** 0.06
19409 H 82.72628731387701 75.37603763654624 40.7027385150396 H 0.0 **** 0.06
19410 H 82.8015829117077 74.41942251509448 39.2039935311254 H 0.0 **** 0.06
19411 C 71.19682760093423 79.43103540179891 111.4912310877991 C 0.0 **** -0.24
19412 H 70.35373249844352 78.82366951534908 111.16233614407096 H 0.0 **** 0.06
19413 H 70.9056337951603 80.01365555410811 112.36528114399971 H 0.0 **** 0.06
19414 H 71.49309311607612 80.10649813255793 110.68752808171965 H 0.0 **** 0.06
19415 H 72.03364231692072 78.78252416093852 111.74719547557605 H 0.0 **** 0.06
19416 C 106.50410022857102 46.0851669434868 80.31179834251225 C 0.0 **** -0.24
19417 H 106.97371811210374 45.113642415477955 80.4674091847152 H 0.0 **** 0.06
19418 H 105.97552269190777 46.38191314778038 81.21875653328365 H 0.0 **** 0.06
19419 H 105.79783541526348 46.01794087881433 79.48466884718044 H 0.0 **** 0.06
19420 H 107.2691315413579 46.8248571527065 80.07825822411502 H 0.0 **** 0.06
19421 C 47.25366558282079 59.087866847499235 87.19005701819339 C 0.0 **** -0.24
19422 H 48.08724050356352 59.541323051328256 87.72723291686509 H 0.0 **** 0.06
19423 H 47.63632129769894 58.35548506746627 86.47864704580837 H 0.0 **** 0.06
19424 H 46.70262000550906 59.861621829563994 86.65453518956133 H 0.0 **** 0.06
19425 H 46.58987226355978 58.59315900874906 87.89959291832105 H 0.0 **** 0.06
19426 C 111.84540080058304 38.167653805492975 4.976043527681199 C 0.0 **** -0.24
19427 H 111.71132276029743 39.213997984731655 5.252357785341275 H 0.0 **** 0.06
19428 H 112.38144999094263 37.64799715394956 5.77067478926088 H 0.0 **** 0.06
19429 H 112.41694413188506 38.10655016410862 4.05024489984001 H 0.0 **** 0.06
19430 H 110.86995433729592 37.7031712889558 4.83113056641713 H 0.0 **** 0.06
19431 C 93.06305686852247 80.73310086706434 26.401204016726638 C 0.0 **** -0.24
19432 H 93.2067805440378 80.25801831955619 25.43026647775173 H 0.0 **** 0.06
19433 H 93.4811991472217 81.73955597769657 26.37777906446553 H 0.0 **** 0.06
19434 H 93.5667569417318 80.14779213830238 27.17006581134001 H 0.0 **** 0.06
19435 H 91.99785532377811 80.78734448231012 26.62537326893363 H 0.0 **** 0.06
19436 C 28.025626805121085 39.0657447740588 63.926561369736056 C 0.0 **** -0.24
19437 H 28.443984756785348 38.3879515491721 64.67051803907913 H 0.0 **** 0.06
19438 H 28.520322562218773 38.90390993494327 62.96849393825202 H 0.0 **** 0.06
19439 H 28.181390201287606 40.096083738793766 64.24627053406019 H 0.0 **** 0.06
19440 H 26.958199859642562 38.875215356857154 63.82114907920819 H 0.0 **** 0.06
19441 C 63.38166219910681 6.807011742247141 83.84211013354616 C 0.0 **** -0.24
19442 H 62.71811752131498 7.662633187344738 83.9686960337001 H 0.0 **** 0.06
19443 H 64.4025619608928 7.099655972372375 84.08875488980877 H 0.0 **** 0.06
19444 H 63.34086378104496 6.465450612667098 82.80745507207422 H 0.0 **** 0.06
19445 H 63.06510553317469 6.000307196604524 84.50353453860146 H 0.0 **** 0.06
19446 C 40.712089916020005 78.86890416488947 18.773855139332397 C 0.0 **** -0.24
19447 H 40.67424145300916 79.94086091219722 18.579855659135433 H 0.0 **** 0.06
19448 H 40.06127956176229 78.34877419719933 18.070758212748018 H 0.0 **** 0.06
19449 H 40.3781518665607 78.67237400434942 19.792122677963334 H 0.0 **** 0.06
19450 H 41.735739136065405 78.51454988274514 18.652752350127003 H 0.0 **** 0.06
19451 C 31.996499234075067 51.99029525566097 26.26596988763592 C 0.0 **** -0.24
19452 H 32.785298028462 52.694603687696 25.99979377604322 H 0.0 **** 0.06
19453 H 32.320534407720196 50.9764225797172 26.03095504489599 H 0.0 **** 0.06
19454 H 31.094513437459796 52.22472809083693 25.70019743431658 H 0.0 **** 0.06
19455 H 31.78707836785737 52.06738110311997 27.332554718369607 H 0.0 **** 0.06
19456 C 34.68477894137658 62.643481763791584 115.21939997160995 C 0.0 **** -0.24
19457 H 34.347860393091224 63.66220064319717 115.02796252258219 H 0.0 **** 0.06
19458 H 33.820483673127825 61.98200619456543 115.28733665114162 H 0.0 **** 0.06
19459 H 35.24048265812466 62.613447300757514 116.15693179130749 H 0.0 **** 0.06
19460 H 35.32897579190026 62.31546548055343 114.40374913249566 H 0.0 **** 0.06
19461 C 71.99758030710407 99.3855753082484 107.97766291472234 C 0.0 **** -0.24
19462 H 72.12400157334571 98.67461123117778 107.16049746101834 H 0.0 **** 0.06
19463 H 72.2349235801627 98.89691732381323 108.92259471599547 H 0.0 **** 0.06
19464 H 70.96586203877672 99.7357363242495 107.99754277190516 H 0.0 **** 0.06
19465 H 72.66733069118916 100.23280907610865 107.82782307687486 H 0.0 **** 0.06
19466 C 79.69835908636313 17.3097287047417 44.50593383135879 C 0.0 **** -0.24
19467 H 80.67102011282671 17.593755860478325 44.906449269336946 H 0.0 **** 0.06
19468 H 79.08852509028407 16.881911816440834 45.302118369894515 H 0.0 **** 0.06
19469 H 79.83215635011996 16.572573732338924 43.71468205998357 H 0.0 **** 0.06
19470 H 79.20054906549151 18.19116815620555 44.101076722778885 H 0.0 **** 0.06
19471 C 116.07671768241866 95.47896939618556 95.81197032627446 C 0.0 **** -0.24
19472 H 115.56384122145191 94.56811345401542 96.12115759807986 H 0.0 **** 0.06
19473 H 115.43558832046175 96.3398538340993 96.00280722895133 H 0.0 **** 0.06
19474 H 116.3030781863064 95.42342812900083 94.74688690433618 H 0.0 **** 0.06
19475 H 117.00369497264447 95.58282654731494 96.37535237062914 H 0.0 **** 0.06
19476 C 66.40502395726983 6.813662017072971 35.70928229227047 C 0.0 **** -0.24
19477 H 66.22747275255975 5.745385346420022 35.58223450822584 H 0.0 **** 0.06
19478 H 65.59928711731925 7.374624902241479 35.23495814082481 H 0.0 **** 0.06
19479 H 67.35595612095386 7.080334455223991 35.248408793619106 H 0.0 **** 0.06
19480 H 66.43681521877227 7.052340765717702 36.772438607320034 H 0.0 **** 0.06
19481 C 34.811592255251696 83.8993017645397 18.802903254395687 C 0.0 **** -0.24
19482 H 34.47778062309777 84.91575878114597 19.012198537240764 H 0.0 **** 0.06
19483 H 35.30335576316742 83.48936263352672 19.685382241377454 H 0.0 **** 0.06
19484 H 35.51247898052992 83.91148154254768 17.968368051325598 H 0.0 **** 0.06
19485 H 33.951533932711584 83.28130294214452 18.5455092116827 H 0.0 **** 0.06
19486 C 83.02162050314584 117.06671557899804 6.205169805858475 C 0.0 **** -0.24
19487 H 83.55358515957488 116.11927887594481 6.286832647808922 H 0.0 **** 0.06
19488 H 82.31455306622121 117.15771602803053 7.030611635205503 H 0.0 **** 0.06
19489 H 82.48247112586213 117.10133291264208 5.258605944083058 H 0.0 **** 0.06
19490 H 83.73529716429886 117.88924950376628 6.2466680807250725 H 0.0 **** 0.06
19491 C 15.4669371284632 9.707758134463518 90.12542817470421 C 0.0 **** -0.24
19492 H 14.892801520837168 9.50081008280685 89.22206811273551 H 0.0 **** 0.06
19493 H 14.795394443864495 9.739244256513388 90.98335160352877 H 0.0 **** 0.06
19494 H 15.971437174686912 10.669244141052047 90.02195342297622 H 0.0 **** 0.06
19495 H 16.20887445206887 8.922008964084228 90.27225424896616 H 0.0 **** 0.06
19496 C 59.794421160177116 83.74634784255394 25.11402326914174 C 0.0 **** -0.24
19497 H 58.98127097017332 83.85852694668026 25.831805436221373 H 0.0 **** 0.06
19498 H 60.01970223968538 82.68759753314504 24.98394322709464 H 0.0 **** 0.06
19499 H 60.67981423032223 84.26322818988427 25.48560428177484 H 0.0 **** 0.06
19500 H 59.49639650964445 84.17571735348915 24.158003057904295 H 0.0 **** 0.06
19501 C 37.37135756524337 37.018317104212656 57.25357925720288 C 0.0 **** -0.24
19502 H 37.126480313010944 37.98333402449353 57.69775947794478 H 0.0 **** 0.06
19503 H 36.711417949755855 36.25273668922196 57.663196125070506 H 0.0 **** 0.06
19504 H 38.406627089534894 36.766944260189234 57.48240283430909 H 0.0 **** 0.06
19505 H 37.239549524974805 37.07218969306673 56.17280640033251 H 0.0 **** 0.06
19506 C 62.737693854373674 9.384871689706468 76.94955258104474 C 0.0 **** -0.24
19507 H 62.419543531003455 8.911843105881083 76.0208099542505 H 0.0 **** 0.06
19508 H 63.793159704012965 9.649650751881431 76.879477536879 H 0.0 **** 0.06
19509 H 62.59218350343815 8.692602442485494 77.77871395591464 H 0.0 **** 0.06
19510 H 62.14720657879002 10.284303384412205 77.1206516878641 H 0.0 **** 0.06
19511 C 74.48379708783133 74.32682951699138 5.925809756880106 C 0.0 **** -0.24
19512 H 74.11232492548683 73.55310166285284 6.598149138264585 H 0.0 **** 0.06
19513 H 75.26709265703192 73.91225948236735 5.29172358705695 H 0.0 **** 0.06
19514 H 74.88895809461138 75.1519077296362 6.511971930553951 H 0.0 **** 0.06
19515 H 73.66534745192197 74.6898146603213 5.304680536479584 H 0.0 **** 0.06
19516 C 63.36122990144767 43.06580807789831 30.03254747591768 C 0.0 **** -0.24
19517 H 63.45348929977314 43.09480791168039 31.117850074947455 H 0.0 **** 0.06
19518 H 64.15868244465327 43.65921682587853 29.584029767733455 H 0.0 **** 0.06
19519 H 62.39449655124494 43.47571151838761 29.73908639827971 H 0.0 **** 0.06
19520 H 63.43803027529583 42.03444076224801 29.68898131667123 H 0.0 **** 0.06
19521 C 13.918771450283344 41.6148556557618 20.890926914018507 C 0.0 **** -0.24
19522 H 14.557522354574104 42.26617863343745 20.294905779371277 H 0.0 **** 0.06
19523 H 14.274406702269317 40.58727767691596 20.813896742778496 H 0.0 **** 0.06
19524 H 12.894275446718709 41.67384378738254 20.52137583738616 H 0.0 **** 0.06
19525 H 13.94707837049242 41.933233159014236 21.932810798440215 H 0.0 **** 0.06
19526 C 78.46162652555176 0.11045920877779736 88.69026817665053 C 0.0 **** -0.24
19527 H 78.93827511707286 1.0010361327040869 89.10151932961946 H 0.0 **** 0.06
19528 H 79.22515912604035 -0.5629580883655478 88.30081511952562 H 0.0 **** 0.06
19529 H 77.785686086878 0.3996063547819517 87.88575279475623 H 0.0 **** 0.06
19530 H 77.89704366348514 -0.3945176608232259 89.47475028901613 H 0.0 **** 0.06
19531 C 58.319675180328524 66.78131190706966 37.251964077211674 C 0.0 **** -0.24
19532 H 57.41355026627101 67.0509564485466 36.70943755179542 H 0.0 **** 0.06
19533 H 58.80086887397247 67.68551778258939 37.625906564518445 H 0.0 **** 0.06
19534 H 59.00174587835415 66.25667146150332 36.58290837320921 H 0.0 **** 0.06
19535 H 58.061002664370044 66.13361427458787 38.090206245355326 H 0.0 **** 0.06
19536 C 15.317046836370835 20.869865781940163 10.867034159335816 C 0.0 **** -0.24
19537 H 14.52091999265657 21.547250126113468 10.557820513714745 H 0.0 **** 0.06
19538 H 14.959155775545824 19.840826783171494 10.813682501828708 H 0.0 **** 0.06
19539 H 15.611872603631387 21.099372360769834 11.891716135515736 H 0.0 **** 0.06
19540 H 16.175308965976924 20.991942873007048 10.206377014487572 H 0.0 **** 0.06
19541 C 8.555233161804082 26.25465935835919 36.51642244335869 C 0.0 **** -0.24
19542 H 7.805081693070164 25.465504501122012 36.562006687687244 H 0.0 **** 0.06
19543 H 9.135044369360372 26.259256373935784 37.43993825682071 H 0.0 **** 0.06
19544 H 8.061633890585796 27.218455339448255 36.39192492529298 H 0.0 **** 0.06
19545 H 9.220249681967687 26.07461437876681 35.67138490545494 H 0.0 **** 0.06
19546 C 71.31256924173601 83.7321257759059 36.60846273043808 C 0.0 **** -0.24
19547 H 72.32527559459868 83.38127318628796 36.808409984853654 H 0.0 **** 0.06
19548 H 71.2329600677337 84.78504912066327 36.88155697127587 H 0.0 **** 0.06
19549 H 70.60422796264669 83.14981565055129 37.197915977362015 H 0.0 **** 0.06
19550 H 71.08877005740277 83.61324142768319 35.548851980594065 H 0.0 **** 0.06
19551 C 13.319706637559506 72.02285154764527 84.80052656796607 C 0.0 **** -0.24
19552 H 12.352458358617042 72.49949998210317 84.95813550432294 H 0.0 **** 0.06
19553 H 13.655001662281762 72.2108205162877 83.78078912422436 H 0.0 **** 0.06
19554 H 13.225242730718378 70.94792165280427 84.95977780872249 H 0.0 **** 0.06
19555 H 14.045307571754961 72.43140369982197 85.50291884742325 H 0.0 **** 0.06
19556 C 62.94186260649252 89.29287180216897 17.113512846972668 C 0.0 **** -0.24
19557 H 63.699098248196634 89.92598370035671 17.57600833737453 H 0.0 **** 0.06
19558 H 61.95160968960357 89.62453829836858 17.426062164886957 H 0.0 **** 0.06
19559 H 63.09437652073845 88.25923915921015 17.42308771503741 H 0.0 **** 0.06
19560 H 63.023900399870456 89.36335159325841 16.028951663357816 H 0.0 **** 0.06
19561 C 104.6700686395418 75.81938423966446 44.761856759598686 C 0.0 **** -0.24
19562 H 105.35992934714588 76.37163739792115 45.40091723563849 H 0.0 **** 0.06
19563 H 104.7708975994181 76.16672891925134 43.733545147458045 H 0.0 **** 0.06
19564 H 103.6482573882881 75.98376661089586 45.103175882598904 H 0.0 **** 0.06
19565 H 104.90302225409437 74.75534741075094 44.81058920486433 H 0.0 **** 0.06
19566 C 44.9472648660978 100.5047700810872 39.79462725140526 C 0.0 **** -0.24
19567 H 45.97159330414001 100.16803089689333 39.63444125411526 H 0.0 **** 0.06
19568 H 44.31593248160641 100.14297981814448 38.98296056778998 H 0.0 **** 0.06
19569 H 44.92266468983575 101.59332824405124 39.81715295824155 H 0.0 **** 0.06
19570 H 44.58050746536219 100.11249010371975 40.743456546331444 H 0.0 **** 0.06
19571 C 49.22889345252548 104.9971247877389 100.19400513530789 C 0.0 **** -0.24
19572 H 48.429499408164446 104.91441875307908 100.93065122893756 H 0.0 **** 0.06
19573 H 50.05343491013875 105.57260621984366 100.61736337922167 H 0.0 **** 0.06
19574 H 48.851849985218564 105.50257119307662 99.30446942961942 H 0.0 **** 0.06
19575 H 49.58001857363999 104.00144690855399 99.92552012621763 H 0.0 **** 0.06
19576 C 63.670270652404554 66.98679492662424 59.22326175725224 C 0.0 **** -0.24
19577 H 64.31310481680646 67.84167974199079 59.43447442793386 H 0.0 **** 0.06
19578 H 62.86591991006205 66.94874900176072 59.95705729331079 H 0.0 **** 0.06
19579 H 64.25696476511908 66.06941011985876 59.27698082352973 H 0.0 **** 0.06
19580 H 63.24759485973033 67.09005057498882 58.22390245716422 H 0.0 **** 0.06
19581 C 89.72025387778416 57.77928062611474 85.2740467116756 C 0.0 **** -0.24
19582 H 89.6847272659891 56.92725925824422 85.95224871890713 H 0.0 **** 0.06
19583 H 89.71419536369953 57.42454819707808 84.2431428371178 H 0.0 **** 0.06
19584 H 90.63093486963115 58.351013863798755 85.45589245558406 H 0.0 **** 0.06
19585 H 88.85130410262312 58.416468820632986 85.44437339435419 H 0.0 **** 0.06
19586 C 45.409847160671504 100.6611780560624 103.9390272962178 C 0.0 **** -0.24
19587 H 45.71813023460247 101.67437354539143 104.19612453956202 H 0.0 **** 0.06
19588 H 44.37553593552008 100.50635230649249 104.24586900701144 H 0.0 **** 0.06
19589 H 46.052625813311096 99.94570862628959 104.45159402303088 H 0.0 **** 0.06
19590 H 45.49476221265762 100.51868406062835 102.86108595056675 H 0.0 **** 0.06
19591 C 110.41873867364909 25.658436355490153 70.58346855165439 C 0.0 **** -0.24
19592 H 109.56716790628388 25.13837149133201 70.14503232978592 H 0.0 **** 0.06
19593 H 110.61038221278905 26.576432387902116 70.02723420281677 H 0.0 **** 0.06
19594 H 111.29810829211549 25.016133989034387 70.53858760864227 H 0.0 **** 0.06
19595 H 110.19926199282905 25.901398946741125 71.62289854282238 H 0.0 **** 0.06
19596 C 12.899675735519928 43.853473323613684 90.40036360380867 C 0.0 **** -0.24
19597 H 13.704350566033437 43.699804111895716 89.6810057037539 H 0.0 **** 0.06
19598 H 13.026500388689232 43.16931736602385 91.23888710010641 H 0.0 **** 0.06
19599 H 11.940206038125616 43.66402835349885 89.91753427605815 H 0.0 **** 0.06
19600 H 12.927697873626492 44.88141335946574 90.76189453541406 H 0.0 **** 0.06
19601 C 101.48936336253632 30.14968031316795 48.063330093786455 C 0.0 **** -0.24
19602 H 102.32428234630521 30.382548953772755 48.72433770686176 H 0.0 **** 0.06
19603 H 101.68604539131587 30.560092595036025 47.07319804631589 H 0.0 **** 0.06
19604 H 100.5757179757154 30.589336449740614 48.46463199470626 H 0.0 **** 0.06
19605 H 101.37212330344573 29.068220188517955 47.99345634114274 H 0.0 **** 0.06
19606 C 108.55263976414639 31.88702604202132 6.889635775800784 C 0.0 **** -0.24
19607 H 108.04261944769772 31.77826368528457 7.846527392375833 H 0.0 **** 0.06
19608 H 108.31597117841079 32.86059935990288 6.4598118887050475 H 0.0 **** 0.06
19609 H 108.22181468641284 31.099591264459335 6.211431612056302 H 0.0 **** 0.06
19610 H 109.6294560673291 31.807426856487595 7.040015995248936 H 0.0 **** 0.06
19611 C 73.03130395633792 83.52735655872073 9.118804181247551 C 0.0 **** -0.24
19612 H 73.6127684877248 84.4456355551385 9.199533594611175 H 0.0 **** 0.06
19613 H 73.41698278732525 82.9246572363131 8.296184603212023 H 0.0 **** 0.06
19614 H 71.98694150486966 83.77559513629271 8.92892721220623 H 0.0 **** 0.06
19615 H 73.1081598426112 82.9651020171782 10.049014655905474 H 0.0 **** 0.06
19616 C 35.83715013521579 96.18070577067252 27.573816308385176 C 0.0 **** -0.24
19617 H 34.8689250625182 96.36235325708944 27.107448470900977 H 0.0 **** 0.06
19618 H 36.6295740369593 96.34469592470444 26.8428373617719 H 0.0 **** 0.06
19619 H 35.88091387313439 95.15210453595233 27.932289214027037 H 0.0 **** 0.06
19620 H 35.969936019539944 96.86334105487003 28.413266460840248 H 0.0 **** 0.06
19621 C 31.430704422701808 111.88143998692941 16.078220288733746 C 0.0 **** -0.24
19622 H 31.30788431265873 111.50074402102655 15.064789822430015 H 0.0 **** 0.06
19623 H 31.593583264126266 112.95876461219385 16.045346104214815 H 0.0 **** 0.06
19624 H 32.289078380407375 111.39813844522622 16.546384173824293 H 0.0 **** 0.06
19625 H 30.532338271069193 111.66703483530898 16.657715156094355 H 0.0 **** 0.06
19626 C 9.7024483894877 38.46056465304106 6.891975077643494 C 0.0 **** -0.24
19627 H 8.721227116784007 38.06350657780786 7.153456071745353 H 0.0 **** 0.06
19628 H 10.336031694121743 37.65222178822607 6.528033418585537 H 0.0 **** 0.06
19629 H 10.157707467643434 38.911236038685644 7.773077206456691 H 0.0 **** 0.06
19630 H 9.592480011603328 39.21485789375821 6.112785603202298 H 0.0 **** 0.06
19631 C 116.50395901075389 29.18023438432448 103.41718193964661 C 0.0 **** -0.24
19632 H 116.28807004968532 30.00570266667853 104.09630910443542 H 0.0 **** 0.06
19633 H 116.531007032559 28.245875474174 103.97749201230235 H 0.0 **** 0.06
19634 H 117.47106359702852 29.34688301859302 102.94022841538438 H 0.0 **** 0.06
19635 H 115.72751570045389 29.12522296765104 102.65362896436625 H 0.0 **** 0.06
19636 C 80.49810459762233 102.84359216958916 16.87882949651157 C 0.0 **** -0.24
19637 H 80.20092318029188 103.6104635485564 16.163416280470074 H 0.0 **** 0.06
19638 H 80.51883972176233 101.87298500791928 16.382372637550958 H 0.0 **** 0.06
19639 H 79.7834845367216 102.81741731093237 17.701126633556697 H 0.0 **** 0.06
19640 H 81.48984263688763 103.07418699998058 17.26695990194878 H 0.0 **** 0.06
19641 C 37.469348507942726 37.45417822386785 94.49996174601398 C 0.0 **** -0.24
19642 H 36.872145821120256 37.6377215192106 95.39263600146603 H 0.0 **** 0.06
19643 H 37.942793786246426 38.382521311274395 94.18192685474435 H 0.0 **** 0.06
19644 H 36.825335444308706 37.0826974913404 93.70264886558084 H 0.0 **** 0.06
19645 H 38.23581569264974 36.71227462363305 94.72287572395726 H 0.0 **** 0.06
19646 C 9.07868042255032 23.306325722888687 100.44905132689226 C 0.0 **** -0.24
19647 H 8.72297375786215 22.76427676131928 99.57259979649456 H 0.0 **** 0.06
19648 H 8.281603771255618 23.359682569609248 101.19070854944724 H 0.0 **** 0.06
19649 H 9.372946883890393 24.314198377187836 100.15767788164774 H 0.0 **** 0.06
19650 H 9.937363804989587 22.78551792951447 100.87464944076456 H 0.0 **** 0.06
19651 C 34.55720189405912 105.83416978556235 39.4963146876282 C 0.0 **** -0.24
19652 H 34.95771086829636 106.66969196332988 40.06909888125435 H 0.0 **** 0.06
19653 H 34.9345873865617 104.897791752909 39.90775965737856 H 0.0 **** 0.06
19654 H 34.8682726994699 105.92484724044158 38.45551108866255 H 0.0 **** 0.06
19655 H 33.46893401334921 105.84315265482118 39.55259848852299 H 0.0 **** 0.06
19656 C 82.77750136202036 116.40244810660076 89.15638688702964 C 0.0 **** -0.24
19657 H 81.95866841131397 115.74421733791533 89.44643586633623 H 0.0 **** 0.06
19658 H 83.43938692675988 116.55640254208689 90.00857764946815 H 0.0 **** 0.06
19659 H 82.37403395595396 117.36077763011272 88.82972630890006 H 0.0 **** 0.06
19660 H 83.33790903704832 115.94668560284944 88.33905314418672 H 0.0 **** 0.06
19661 C 61.323189525753236 78.53956585964079 12.073677796449232 C 0.0 **** -0.24
19662 H 61.840735227826116 78.76726287044926 11.141495346703607 H 0.0 **** 0.06
19663 H 62.03155512430567 78.57813064089137 12.901261332555606 H 0.0 **** 0.06
19664 H 60.888858415089686 77.5412197278441 12.012554040161547 H 0.0 **** 0.06
19665 H 60.532309477677046 79.27133273378286 12.23707466150816 H 0.0 **** 0.06
19666 C 48.44495247263032 94.6932065289594 15.556719259986266 C 0.0 **** -0.24
19667 H 49.31981552583872 95.20343073276544 15.957869335773154 H 0.0 **** 0.06
19668 H 48.26838094813209 93.77768683187318 16.12143579006684 H 0.0 **** 0.06
19669 H 48.61649467253861 94.44713801701775 14.508525497122207 H 0.0 **** 0.06
19670 H 47.57436889203032 95.34516440858519 15.638754708640818 H 0.0 **** 0.06
19671 C 15.762718037683598 4.637337083333108 52.447364680783494 C 0.0 **** -0.24
19672 H 15.809401226156268 5.68390554190762 52.14457304776806 H 0.0 **** 0.06
19673 H 16.759067131037238 4.197643775444064 52.38820445203939 H 0.0 **** 0.06
19674 H 15.08736021749625 4.097627542012162 51.78498950026784 H 0.0 **** 0.06
19675 H 15.397654169820193 4.572172086846493 53.472119499161096 H 0.0 **** 0.06
19676 C 0.5858170151914237 54.86369757006948 14.960301160924871 C 0.0 **** -0.24
19677 H -0.3366127766673799 54.33913181118459 15.208290233769901 H 0.0 **** 0.06
19678 H 0.47917878706255124 55.920127807743306 15.20280250201003 H 0.0 **** 0.06
19679 H 0.790129361533559 54.75374835010411 13.895214210676926 H 0.0 **** 0.06
19680 H 1.4099465061743786 54.43886015839269 15.534634173050023 H 0.0 **** 0.06
19681 C 48.27706612048213 77.66213025734342 4.314978615145122 C 0.0 **** -0.24
19682 H 48.67876880889425 78.53643993990579 4.827346754375611 H 0.0 **** 0.06
19683 H 47.31915069781939 77.38962970009953 4.760261870617171 H 0.0 **** 0.06
19684 H 48.97433015724381 76.83025057079146 4.413515958958271 H 0.0 **** 0.06
19685 H 48.134017531143094 77.89461530458783 3.2592161256339693 H 0.0 **** 0.06
19686 C 54.08016694698756 101.44094807109789 104.56248932449625 C 0.0 **** -0.24
19687 H 54.39455502865869 100.93128371508325 105.47400072128474 H 0.0 **** 0.06
19688 H 53.27299332833519 102.13504399657896 104.7945692882779 H 0.0 **** 0.06
19689 H 53.730751484351 100.70507199679619 103.83794337396444 H 0.0 **** 0.06
19690 H 54.924454214322566 101.9902874463564 104.14454686598057 H 0.0 **** 0.06
19691 C 83.00857048152454 38.55323558443863 103.93169428618819 C 0.0 **** -0.24
19692 H 82.57123476785088 37.673290820665194 104.40307866853692 H 0.0 **** 0.06
19693 H 83.58032297604117 39.11582586426264 104.67041608144288 H 0.0 **** 0.06
19694 H 82.21440629111083 39.18242578032333 103.52988649526799 H 0.0 **** 0.06
19695 H 83.66915764898627 38.24095755933578 103.12194698907936 H 0.0 **** 0.06
19696 C 81.09458076381216 72.43628264714161 83.49143811471424 C 0.0 **** -0.24
19697 H 80.1489346236065 72.64062690549127 83.99336675609925 H 0.0 **** 0.06
19698 H 81.6943111888736 71.76472441266975 84.10661254769195 H 0.0 **** 0.06
19699 H 81.63533733870355 73.3695435452839 83.33913281802904 H 0.0 **** 0.06
19700 H 80.89968982250585 71.96779612407443 82.52642541863645 H 0.0 **** 0.06
19701 C 56.5930953868069 71.7797310357158 16.597457709729184 C 0.0 **** -0.24
19702 H 57.13010342160948 72.2599220672397 17.414999432282485 H 0.0 **** 0.06
19703 H 56.74934212426435 72.3470124831575 15.67877146905795 H 0.0 **** 0.06
19704 H 55.52835303975154 71.75058585134994 16.83001499616421 H 0.0 **** 0.06
19705 H 56.964307080367014 70.7635285300299 16.465405055166656 H 0.0 **** 0.06
19706 C 81.54985581355396 37.01364970534871 59.1180745479179 C 0.0 **** -0.24
19707 H 82.43927190049064 36.52926190515245 58.714140027677445 H 0.0 **** 0.06
19708 H 80.7335942380783 36.29234377769512 59.166089267902805 H 0.0 **** 0.06
19709 H 81.26433677699157 37.84406240059536 58.471754776067144 H 0.0 **** 0.06
19710 H 81.76379025553311 37.38841878047913 60.11850480747759 H 0.0 **** 0.06
19711 C 88.77670164205338 107.78966981118248 83.65534332803139 C 0.0 **** -0.24
19712 H 89.20556055527666 107.17254436056697 84.44488672919579 H 0.0 **** 0.06
19713 H 88.25409688786235 108.63624143019888 84.1014917087602 H 0.0 **** 0.06
19714 H 88.0749289801688 107.19538394554672 83.0706400039956 H 0.0 **** 0.06
19715 H 89.5726108886567 108.15439869842893 83.0065538092951 H 0.0 **** 0.06
19716 C 56.60002266525262 29.65669596626313 90.24712759632379 C 0.0 **** -0.24
19717 H 57.63900889991509 29.9031220324068 90.0242162394274 H 0.0 **** 0.06
19718 H 55.94421496482753 30.19212563623111 89.56035622490026 H 0.0 **** 0.06
19719 H 56.36985603211034 29.948560388492552 91.27236567495905 H 0.0 **** 0.06
19720 H 56.44948760602042 28.583324735207697 90.13322875775333 H 0.0 **** 0.06
19721 C 88.74857315779252 107.75198738239911 73.15564615685994 C 0.0 **** -0.24
19722 H 87.78390019145576 107.53013231631368 72.69884205310242 H 0.0 **** 0.06
19723 H 88.75551840143396 107.38965866326959 74.18474108187343 H 0.0 **** 0.06
19724 H 88.91489194688671 108.82916845911234 73.14889685004871 H 0.0 **** 0.06
19725 H 89.53975161928417 107.25900299240956 72.59107766590728 H 0.0 **** 0.06
19726 C 14.043099249207003 9.267243599211639 109.58120707106048 C 0.0 **** -0.24
19727 H 14.396395169551518 8.708313670094853 110.44778014943094 H 0.0 **** 0.06
19728 H 13.15374036334184 8.785027923067446 109.17489264706197 H 0.0 **** 0.06
19729 H 14.823892703365686 9.288783609258076 108.82015763168508 H 0.0 **** 0.06
19730 H 13.798954026418873 10.286659117878571 109.88037874814103 H 0.0 **** 0.06
19731 C 102.76386747304238 77.287863854096 83.48223882602554 C 0.0 **** -0.24
19732 H 101.76979945988896 77.3307953471718 83.03840870450904 H 0.0 **** 0.06
19733 H 103.50786020745136 77.15662127503839 82.69654947063026 H 0.0 **** 0.06
19734 H 102.81602791986901 76.44795505919345 84.17603718035559 H 0.0 **** 0.06
19735 H 102.96225373876948 78.21560852033181 84.01955747697187 H 0.0 **** 0.06
19736 C 45.84306827416788 24.822200894823034 67.53552394721862 C 0.0 **** -0.24
19737 H 46.31102893162722 24.47294955860601 68.45564343188235 H 0.0 **** 0.06
19738 H 44.78300307591172 25.005339105243245 67.714445187227 H 0.0 **** 0.06
19739 H 45.95519441368157 24.06407698951358 66.76059786908527 H 0.0 **** 0.06
19740 H 46.32150352445811 25.746169955929908 67.21214893083581 H 0.0 **** 0.06
19741 C 78.14907285486797 39.62894883939116 44.900297640066185 C 0.0 **** -0.24
19742 H 77.19305242214864 40.13591752303785 44.775709670096205 H 0.0 **** 0.06
19743 H 78.23024743807349 39.25224068593073 45.91964458394631 H 0.0 **** 0.06
19744 H 78.96027138400461 40.331647389493725 44.70685945813722 H 0.0 **** 0.06
19745 H 78.21373635895227 38.798109883656736 44.19828924798571 H 0.0 **** 0.06
19746 C 85.52997853789475 28.761070722821046 48.295650334493985 C 0.0 **** -0.24
19747 H 86.49119863030444 29.01836522765001 47.8514454228997 H 0.0 **** 0.06
19748 H 85.46674020362653 27.680933552226804 48.42633757871312 H 0.0 **** 0.06
19749 H 84.7257432780097 29.095711651031536 47.63984341961816 H 0.0 **** 0.06
19750 H 85.43543346272418 29.251354500083664 49.2648085485996 H 0.0 **** 0.06
19751 C 36.710318736592 106.19094694468603 0.7944808041833795 C 0.0 **** -0.24
19752 H 36.247375539625125 106.3935678136153 1.760231779230935 H 0.0 **** 0.06
19753 H 36.98930248578739 107.13215541441173 0.32160322222399884 H 0.0 **** 0.06
19754 H 36.00374555656333 105.65879007910772 0.1575553914556309 H 0.0 **** 0.06
19755 H 37.60066468850869 105.57886849902312 0.9409412859307054 H 0.0 **** 0.06
19756 C 10.615601542594405 100.00952802781075 18.681524241818465 C 0.0 **** -0.24
19757 H 11.29021394659543 100.77594946487449 19.062076220907613 H 0.0 **** 0.06
19758 H 10.184001186644863 99.4583655679408 19.517527049820558 H 0.0 **** 0.06
19759 H 11.170258413325314 99.32367753827742 18.040618264652323 H 0.0 **** 0.06
19760 H 9.81932464755991 100.47994216197884 18.106051284065018 H 0.0 **** 0.06
19761 C 109.36805723118553 74.3736634210567 59.86727638912373 C 0.0 **** -0.24
19762 H 109.3620643660027 73.87636817103609 60.83688871012134 H 0.0 **** 0.06
19763 H 108.40546254103862 74.22506201438901 59.37698595532777 H 0.0 **** 0.06
19764 H 110.16029107837898 73.95335605942537 59.24805849520061 H 0.0 **** 0.06
19765 H 109.54325435785447 75.44061761233004 60.00748811243574 H 0.0 **** 0.06
19766 C 23.31909718387658 92.86990028395647 47.549132378915914 C 0.0 **** -0.24
19767 H 24.15313083843367 93.45264837958695 47.94033577591455 H 0.0 **** 0.06
19768 H 23.22899367302574 91.93989706127016 48.11216616592307 H 0.0 **** 0.06
19769 H 23.4962887313297 92.64258444303042 46.497804528884274 H 0.0 **** 0.06
19770 H 22.397189386087334 93.44434118914151 47.64682734502705 H 0.0 **** 0.06
19771 C 47.14514130539902 73.5075013017595 103.18341267918288 C 0.0 **** -0.24
19772 H 47.37904640934181 74.48835375197802 103.59834941222584 H 0.0 **** 0.06
19773 H 46.799618068716086 72.84917160194863 103.98077225657477 H 0.0 **** 0.06
19774 H 48.03976120261365 73.08545186013612 102.72511135750341 H 0.0 **** 0.06
19775 H 46.36372408440104 73.60968457723288 102.43007523710713 H 0.0 **** 0.06
19776 C 92.42445775522467 65.56224220126535 113.82305646411564 C 0.0 **** -0.24
19777 H 92.71523358605066 64.7876874096334 113.1131776868533 H 0.0 **** 0.06
19778 H 92.59411776922292 66.54375651686061 113.37910402942512 H 0.0 **** 0.06
19779 H 93.02059464432415 65.46584725333886 114.73041217422872 H 0.0 **** 0.06
19780 H 91.36927871648169 65.45191786442368 114.06952796732091 H 0.0 **** 0.06
19781 C 27.262889020427345 72.9141534388566 56.80647316132405 C 0.0 **** -0.24
19782 H 26.84911392428706 73.83215970937874 56.38843098453208 H 0.0 **** 0.06
19783 H 28.325569186073487 72.85560937407683 56.57204406302617 H 0.0 **** 0.06
19784 H 26.747376090195473 72.05589356535131 56.37474290328856 H 0.0 **** 0.06
19785 H 27.12778889898349 72.91318318743652 57.88735358692017 H 0.0 **** 0.06
19786 C 63.93473348776646 35.44027744090329 68.73991188901857 C 0.0 **** -0.24
19787 H 63.67334107259135 35.76099321682639 67.73096539520898 H 0.0 **** 0.06
19788 H 63.66117418350277 34.39353684423931 68.87060989636592 H 0.0 **** 0.06
19789 H 63.39748605976957 36.051420566786845 69.4648807346041 H 0.0 **** 0.06
19790 H 65.0082552104632 35.558077667889734 68.89041051947817 H 0.0 **** 0.06
19791 C 2.090605703638076 61.2387989492608 31.056320131489684 C 0.0 **** -0.24
19792 H 2.4348491008664013 62.171980785922415 30.61040678071393 H 0.0 **** 0.06
19793 H 2.33392988284767 60.40792808182556 30.393826708830858 H 0.0 **** 0.06
19794 H 1.0116475688762137 61.283668518160084 31.20267450981507 H 0.0 **** 0.06
19795 H 2.582203260459579 61.09403022988505 32.01799751554708 H 0.0 **** 0.06
19796 C 63.32037047618587 67.74346585251112 96.85994237407184 C 0.0 **** -0.24
19797 H 63.77745848302072 68.69720333280162 97.12257502216488 H 0.0 **** 0.06
19798 H 62.62277487527024 67.89014085335711 96.03552841622195 H 0.0 **** 0.06
19799 H 62.784531294279134 67.34835804893817 97.72309344621712 H 0.0 **** 0.06
19800 H 64.09541787958756 67.0384414029077 96.55968314256884 H 0.0 **** 0.06
19801 C 60.04484497939621 86.42873687875115 10.676511508599994 C 0.0 **** -0.24
19802 H 60.52161106259036 85.94938558852556 11.532748704721222 H 0.0 **** 0.06
19803 H 60.545394129121696 87.37352546200682 10.464135283017068 H 0.0 **** 0.06
19804 H 58.9958101338297 86.61547788350342 10.903714485462693 H 0.0 **** 0.06
19805 H 60.11768106412901 85.77405263014754 9.807992069084154 H 0.0 **** 0.06
19806 C 62.636547246677964 108.57117134797963 113.82834931265492 C 0.0 **** -0.24
19807 H 62.33870402326227 107.92834163877399 114.65686241718872 H 0.0 **** 0.06
19808 H 63.19845164975075 109.42199648542137 114.2145858185175 H 0.0 **** 0.06
19809 H 61.74813140169144 108.92801896345168 113.30826030379181 H 0.0 **** 0.06
19810 H 63.26172167588183 108.00693834088321 113.13699877837514 H 0.0 **** 0.06
19811 C 97.56183074476908 16.97429190382894 77.53781078767716 C 0.0 **** -0.24
19812 H 97.52363381712604 17.95987833418131 77.07329062399384 H 0.0 **** 0.06
19813 H 98.58364414408345 16.760199856156987 77.85209819940582 H 0.0 **** 0.06
19814 H 97.23667153762256 16.221696976835375 76.82067493159587 H 0.0 **** 0.06
19815 H 96.90336576724809 16.95718870232254 78.40605896700777 H 0.0 **** 0.06
19816 C 64.77215979793868 39.41138881781143 7.9788050747612225 C 0.0 **** -0.24
19817 H 64.37182069108081 39.36749788182772 8.991342834617807 H 0.0 **** 0.06
19818 H 65.85493209991543 39.284619107451704 8.010808716960273 H 0.0 **** 0.06
19819 H 64.53261873818539 40.37814122141282 7.53636025417606 H 0.0 **** 0.06
19820 H 64.33043251169843 38.61678155783085 7.378270461824261 H 0.0 **** 0.06
19821 C 53.852527364921976 101.8901959450553 93.99678607618483 C 0.0 **** -0.24
19822 H 53.25221907056849 101.47894198211029 93.18597929960728 H 0.0 **** 0.06
19823 H 54.84226656779099 101.43259370102217 93.98465652602897 H 0.0 **** 0.06
19824 H 53.36721333602002 101.68078488590439 94.95088930129663 H 0.0 **** 0.06
19825 H 53.949139850724706 102.96804805059855 93.86675750328484 H 0.0 **** 0.06
19826 C 91.58619632582494 76.95896273981981 35.45528192124162 C 0.0 **** -0.24
19827 H 92.30670572877958 77.53466509555312 34.8737455035603 H 0.0 **** 0.06
19828 H 92.11132485321707 76.20100806866611 36.03661944938747 H 0.0 **** 0.06
19829 H 90.87915328980623 76.4758455838529 34.78155684657692 H 0.0 **** 0.06
19830 H 91.04783247963618 77.62569152124468 36.12952054414015 H 0.0 **** 0.06
19831 C 44.759792718775714 17.781775806663447 83.91662730847901 C 0.0 **** -0.24
19832 H 45.11817625250126 17.469240941289566 82.93577677210212 H 0.0 **** 0.06
19833 H 44.599219642254525 16.903439411527483 84.54092849329248 H 0.0 **** 0.06
19834 H 43.82133043880236 18.325448294925817 83.80359899232175 H 0.0 **** 0.06
19835 H 45.5006567745566 18.429982003141458 84.38338707261846 H 0.0 **** 0.06
19836 C 15.39966211139162 69.99758265263483 106.81805852794483 C 0.0 **** -0.24
19837 H 16.379957901728147 69.86405151320943 106.36055533836446 H 0.0 **** 0.06
19838 H 15.376744148810957 70.94537700575464 107.35674048791265 H 0.0 **** 0.06
19839 H 15.209416389193194 69.17984569580082 107.5135212734377 H 0.0 **** 0.06
19840 H 14.633982951853483 70.00063496601987 106.04272528537678 H 0.0 **** 0.06
19841 C 65.87282791506993 41.849999302914114 46.739573306644644 C 0.0 **** -0.24
19842 H 66.61800977691212 42.14242901722801 47.480028897317254 H 0.0 **** 0.06
19843 H 66.37449146571907 41.45758611348842 45.85490379140978 H 0.0 **** 0.06
19844 H 65.27455049774403 42.71799186278443 46.46469051857264 H 0.0 **** 0.06
19845 H 65.22576838654385 41.0807090172942 47.16133154081584 H 0.0 **** 0.06
19846 C 11.332877125115687 81.96230362657656 92.11063115643884 C 0.0 **** -0.24
19847 H 10.96561226539174 82.87489458926802 91.64148852442906 H 0.0 **** 0.06
19848 H 11.151878486038242 82.00848215508177 93.18425705680613 H 0.0 **** 0.06
19849 H 12.40234932595817 81.86447441604878 91.92569280539578 H 0.0 **** 0.06
19850 H 10.811028857588894 81.10272015531586 91.68942783114997 H 0.0 **** 0.06
19851 C 84.12911365643006 30.69670440261484 6.5438193656885915 C 0.0 **** -0.24
19852 H 83.32124318374579 30.333742548471378 5.909218307405013 H 0.0 **** 0.06
19853 H 84.13026740969693 30.142757284593074 7.483103607928314 H 0.0 **** 0.06
19854 H 83.98235635278326 31.7577286912462 6.747518563130825 H 0.0 **** 0.06
19855 H 85.08258767949403 30.552589086148714 6.035436984290385 H 0.0 **** 0.06
19856 C 51.40717149884088 118.7124531198025 89.61494661434116 C 0.0 **** -0.24
19857 H 52.35454925918146 119.00179058664692 90.06994418372938 H 0.0 **** 0.06
19858 H 50.582609791935134 119.10949210898693 90.2072815021948 H 0.0 **** 0.06
19859 H 51.33953524494784 117.6251246858217 89.57892181525568 H 0.0 **** 0.06
19860 H 51.35348055136275 119.11301210727214 88.60201748438254 H 0.0 **** 0.06
19861 C 55.41526055669781 58.29496658267874 2.955485002362513 C 0.0 **** -0.24
19862 H 56.323615227972134 57.9243782082188 3.430891815300784 H 0.0 **** 0.06
19863 H 55.65852948283614 58.69196891316207 1.9695859261349575 H 0.0 **** 0.06
19864 H 54.98126035216949 59.083684415620326 3.5689020630159973 H 0.0 **** 0.06
19865 H 54.700256051778325 57.47837126544812 2.8525663587749825 H 0.0 **** 0.06
19866 C 90.38032420195731 13.040532127663141 25.120320209576334 C 0.0 **** -0.24
19867 H 91.31172369676503 13.604366305499866 25.17263247405981 H 0.0 **** 0.06
19868 H 90.52435631868559 12.159738588914081 24.494193953590525 H 0.0 **** 0.06
19869 H 89.59967986430132 13.669253792544453 24.69076215685459 H 0.0 **** 0.06
19870 H 90.08692827409544 12.7307576801457 26.123356196757186 H 0.0 **** 0.06
19871 C 70.74377038611101 41.68807593645698 112.63208003424256 C 0.0 **** -0.24
19872 H 70.49930495145892 42.03921119073857 113.63393789649527 H 0.0 **** 0.06
19873 H 71.33304572422912 40.77261862539092 112.70147870192339 H 0.0 **** 0.06
19874 H 71.31955745335875 42.452723408233396 112.10928547617468 H 0.0 **** 0.06
19875 H 69.82356943312257 41.486492976339605 112.08310633262802 H 0.0 **** 0.06
19876 C 29.823306646801313 90.76298364487363 15.801261457120496 C 0.0 **** -0.24
19877 H 30.66760598234257 90.58601885466697 16.46825899786778 H 0.0 **** 0.06
19878 H 29.660513547483824 89.8824383515038 15.180094861629865 H 0.0 **** 0.06
19879 H 30.036716316454218 91.6222139277094 15.165954315553503 H 0.0 **** 0.06
19880 H 28.929381767103592 90.96180693245208 16.393516684951617 H 0.0 **** 0.06
19881 C 40.05985963408962 57.12781070627091 76.20581341588553 C 0.0 **** -0.24
19882 H 40.96253330199454 57.115570736186186 76.81659078671106 H 0.0 **** 0.06
19883 H 39.62447421579362 58.127368076648594 76.21893643812163 H 0.0 **** 0.06
19884 H 39.34120140866028 56.412716676489595 76.6059476972219 H 0.0 **** 0.06
19885 H 40.31183200367033 56.854847926557966 75.18073446522749 H 0.0 **** 0.06
19886 C 67.67935282290597 31.227954765558543 4.232338116683081 C 0.0 **** -0.24
19887 H 67.26055157272384 30.262254763107833 4.516261725260861 H 0.0 **** 0.06
19888 H 67.31217006078333 31.505971070932375 3.244000436188486 H 0.0 **** 0.06
19889 H 68.76705464303785 31.158501952060284 4.2099630195789075 H 0.0 **** 0.06
19890 H 67.37760453319595 31.98268119070522 4.95869035272014 H 0.0 **** 0.06
19891 C 35.6588427253773 63.04923307553673 90.13202295660716 C 0.0 **** -0.24
19892 H 36.30397606992304 62.514791259198944 89.43538070601676 H 0.0 **** 0.06
19893 H 34.64342007246921 63.07950620872447 89.73594722159902 H 0.0 **** 0.06
19894 H 36.02890788220023 64.06619900199462 90.26320858638945 H 0.0 **** 0.06
19895 H 35.65836622038712 62.53572356340487 91.09359788128558 H 0.0 **** 0.06
19896 C 38.439513128211956 92.25003818859204 14.983716067216221 C 0.0 **** -0.24
19897 H 39.16750537919802 93.05780089155076 14.9033337620088 H 0.0 **** 0.06
19898 H 37.65410663125152 92.53856280708987 15.682547785245276 H 0.0 **** 0.06
19899 H 38.934973666919404 91.34857520109051 15.344286320343713 H 0.0 **** 0.06
19900 H 38.00260542643372 92.05696272979515 14.003893071253742 H 0.0 **** 0.06
19901 C 18.826610151719592 108.24238136165053 13.858661322637204 C 0.0 **** -0.24
19902 H 18.88057805252987 109.10375492798215 14.523607599686557 H 0.0 **** 0.06
19903 H 17.937291000633962 107.65714957009936 14.09346931082689 H 0.0 **** 0.06
19904 H 19.71444673313269 107.62426590035662 13.990752317350598 H 0.0 **** 0.06
19905 H 18.773296321092403 108.58501298617699 12.824606751136457 H 0.0 **** 0.06
19906 C 103.93527014389142 106.44782942941268 96.83182360315212 C 0.0 **** -0.24
19907 H 104.09255990995501 107.21705503446552 97.58831782261797 H 0.0 **** 0.06
19908 H 102.8781331276115 106.18369262379224 96.79759396724464 H 0.0 **** 0.06
19909 H 104.52315598381199 105.5654293411749 97.08358512658043 H 0.0 **** 0.06
19910 H 104.24678368362012 106.82730955106422 95.85810712308822 H 0.0 **** 0.06
19911 C 50.16985021053907 48.7690631653486 83.74389259118428 C 0.0 **** -0.24
19912 H 49.6827667841801 48.20019277326776 84.53612475729597 H 0.0 **** 0.06
19913 H 51.062642899682004 49.25251361130108 84.14155890718348 H 0.0 **** 0.06
19914 H 49.483098914444284 49.52626811110315 83.3666170273736 H 0.0 **** 0.06
19915 H 50.45020930719022 48.09676300792188 82.93356500756741 H 0.0 **** 0.06
19916 C 82.38600918800535 83.38385367674331 18.98482699014329 C 0.0 **** -0.24
19917 H 81.4717656676251 83.74372795727493 18.51294368643738 H 0.0 **** 0.06
19918 H 83.19741906291154 84.08215039192024 18.78270274899276 H 0.0 **** 0.06
19919 H 82.64017789684374 82.40307301684214 18.58175976729669 H 0.0 **** 0.06
19920 H 82.2320225564792 83.30454859879828 20.061350765132232 H 0.0 **** 0.06
19921 C 31.839072813208162 16.264080799302434 2.0242886167353884 C 0.0 **** -0.24
19922 H 31.911991309787226 15.878875507474575 3.0407310756136265 H 0.0 **** 0.06
19923 H 31.92887884659197 15.439855785913792 1.3163227957782482 H 0.0 **** 0.06
19924 H 32.64016834974777 16.982093554569232 1.8501818536008265 H 0.0 **** 0.06
19925 H 30.87525274670574 16.75549834925208 1.8899187419489483 H 0.0 **** 0.06
19926 C 86.11685207354552 26.294820985665524 97.0851145893235 C 0.0 **** -0.24
19927 H 87.04161987231066 26.08833950087859 96.54673790031751 H 0.0 **** 0.06
19928 H 85.27125262069691 25.916719634179515 96.5119135668536 H 0.0 **** 0.06
19929 H 86.01010422764071 27.37113365136483 97.2242784393726 H 0.0 **** 0.06
19930 H 86.14637827241518 25.80452653644565 98.05791626317699 H 0.0 **** 0.06
19931 C 95.66606856469375 75.859760657777 32.431573265101946 C 0.0 **** -0.24
19932 H 96.18247210051814 76.8192189016487 32.421239291866954 H 0.0 **** 0.06
19933 H 95.93813769079742 75.3100555028272 33.33292238348727 H 0.0 **** 0.06
19934 H 95.95424317938492 75.28248747720966 31.552440341248 H 0.0 **** 0.06
19935 H 94.58899268611069 76.02642735527078 32.41939426554316 H 0.0 **** 0.06
19936 C 38.55472299127347 56.586341480802105 28.84617988083741 C 0.0 **** -0.24
19937 H 38.27440811997208 56.68448000214585 27.797777320253147 H 0.0 **** 0.06
19938 H 39.37195964426248 57.274079869339005 29.069101110642094 H 0.0 **** 0.06
19939 H 38.87664008880262 55.56299566143366 29.041820741669795 H 0.0 **** 0.06
19940 H 37.697371284576555 56.82469038506531 29.475901595709686 H 0.0 **** 0.06
19941 C 44.07886857478658 111.4987329117488 4.397652157205883 C 0.0 **** -0.24
19942 H 44.970245130857606 112.11707980516584 4.5041159160134185 H 0.0 **** 0.06
19943 H 43.54275211069158 111.78744232825248 3.4926015046569745 H 0.0 **** 0.06
19944 H 43.433007497140366 111.64087944276629 5.264063373628261 H 0.0 **** 0.06
19945 H 44.37037496636708 110.45059093075875 4.329593455719248 H 0.0 **** 0.06
19946 C 40.82882552466266 60.471292239610364 116.25068103999791 C 0.0 **** -0.24
19947 H 40.48472303647176 59.5253098344605 115.83275601431137 H 0.0 **** 0.06
19948 H 41.76169344799082 60.7627751982605 115.7669727036226 H 0.0 **** 0.06
19949 H 40.99349954470405 60.356851132273704 117.32160690596322 H 0.0 **** 0.06
19950 H 40.07496151262455 61.239697759671685 116.07846723204361 H 0.0 **** 0.06
19951 C 43.82659588457636 62.31548683113613 0.7974158100311115 C 0.0 **** -0.24
19952 H 44.68195533882789 61.795805214778966 1.2290751515539569 H 0.0 **** 0.06
19953 H 43.02304438329105 62.36434310593313 1.5322196025532833 H 0.0 **** 0.06
19954 H 43.48124837839606 61.77619291858741 -0.08441394852422945 H 0.0 **** 0.06
19955 H 44.12110424874129 63.32551640320605 0.513013564443014 H 0.0 **** 0.06
19956 C 70.1655775065226 20.993186290784763 96.20756496287919 C 0.0 **** -0.24
19957 H 70.45243755265119 19.941133228803068 96.18716101780811 H 0.0 **** 0.06
19958 H 69.87579883808303 21.270572074291053 97.22156894667302 H 0.0 **** 0.06
19959 H 69.3245940293636 21.153633122889218 95.53201241235632 H 0.0 **** 0.06
19960 H 71.00861129425283 21.605350266977183 95.8893861052778 H 0.0 **** 0.06
19961 C 35.15750091921922 82.53373415055216 69.99320698277896 C 0.0 **** -0.24
19962 H 35.383362216441924 83.50861616341459 70.42477537678016 H 0.0 **** 0.06
19963 H 35.92910306850996 82.26822901767943 69.27127024348306 H 0.0 **** 0.06
19964 H 34.18983880833429 82.57371392387864 69.49386022948525 H 0.0 **** 0.06
19965 H 35.127296070075545 81.78527397833938 70.78516570562851 H 0.0 **** 0.06
19966 C 115.8129744258624 65.15608263956705 50.80431591737726 C 0.0 **** -0.24
19967 H 114.93157751847308 65.76747109868435 51.00305024485261 H 0.0 **** 0.06
19968 H 116.53788362667038 65.29345710867256 51.60643402271238 H 0.0 **** 0.06
19969 H 116.25706760478968 65.45707161684228 49.85530513100081 H 0.0 **** 0.06
19970 H 115.52170090421917 64.10706931938398 50.75244732839884 H 0.0 **** 0.06
19971 C 116.3532462193755 29.690499822681687 28.355336520847857 C 0.0 **** -0.24
19972 H 116.29760064880588 30.094600038649475 27.344597114064243 H 0.0 **** 0.06
19973 H 115.3875784355609 29.807400171131434 28.846657778541783 H 0.0 **** 0.06
19974 H 117.11661469034459 30.227033458872455 28.919535822420926 H 0.0 **** 0.06
19975 H 116.61187961122826 28.63294566549493 28.30932018619859 H 0.0 **** 0.06
19976 C 108.03877054316658 81.96166355014728 10.816787602222348 C 0.0 **** -0.24
19977 H 107.37958262394304 82.82886673944765 10.845500724411366 H 0.0 **** 0.06
19978 H 107.52112180310544 81.09838272363248 11.236384592681176 H 0.0 **** 0.06
19979 H 108.93525055153378 82.16692865301147 11.401539156652419 H 0.0 **** 0.06
19980 H 108.31864932984973 81.75180493678738 9.784875423570384 H 0.0 **** 0.06
19981 C 25.41524126052093 42.34907813606611 64.71487804681291 C 0.0 **** -0.24
19982 H 25.041243283705285 42.176712119659896 63.705564393664595 H 0.0 **** 0.06
19983 H 24.629359199996713 42.12421065588262 65.43582434369335 H 0.0 **** 0.06
19984 H 25.716191504895733 43.392090230340955 64.81780202675009 H 0.0 **** 0.06
19985 H 26.274268633901613 41.70378098438425 64.89899522371496 H 0.0 **** 0.06
19986 C 41.451578268597416 96.92901272997523 34.31072877481489 C 0.0 **** -0.24
19987 H 40.40101059850116 97.18299418520894 34.45050194349642 H 0.0 **** 0.06
19988 H 41.921660139804374 97.67208523899421 33.665934314346316 H 0.0 **** 0.06
19989 H 41.52897034131411 95.94491920002662 33.849702859525394 H 0.0 **** 0.06
19990 H 41.95371886897266 96.91759316934088 35.278424499679545 H 0.0 **** 0.06
19991 C 59.759611952152774 58.7247163074785 42.21439398080598 C 0.0 **** -0.24
19992 H 60.70779939990788 59.12417379789838 42.574656197483286 H 0.0 **** 0.06
19993 H 59.41303060766405 59.32123242836707 41.36972627385247 H 0.0 **** 0.06
19994 H 59.021070123616035 58.763671139130906 43.014317091987785 H 0.0 **** 0.06
19995 H 59.89832494362944 57.69109832716083 41.89640155553774 H 0.0 **** 0.06
19996 C 90.01942306675926 118.18005152000208 68.74761917518782 C 0.0 **** -0.24
19997 H 90.03282590508559 119.26614978011675 68.83802102401663 H 0.0 **** 0.06
19998 H 89.04915194512049 117.80136470866138 69.07031542403223 H 0.0 **** 0.06
19999 H 90.80303543466627 117.75451307234763 69.37476132441265 H 0.0 **** 0.06
20000 H 90.19206722922479 117.89969933245888 67.70919915787894 H 0.0 **** 0.06
20001 C 55.958478611245766 118.85753128764327 97.42957100020215 C 0.0 **** -0.24
20002 H 55.601611951890334 118.75804945272199 96.40420269948854 H 0.0 **** 0.06
20003 H 56.93087965066914 119.3487689865093 97.42908182336731 H 0.0 **** 0.06
20004 H 56.051300307701695 117.8683207790209 97.87849226896654 H 0.0 **** 0.06
20005 H 55.249341425213544 119.45255262673487 98.00493577050926 H 0.0 **** 0.06
20006 C 94.29762233729204 80.3177719675378 61.8847336836483 C 0.0 **** -0.24
20007 H 95.25373229109641 79.81478733135458 62.032584398069424 H 0.0 **** 0.06
20008 H 93.52053602415427 79.79228461421559 62.440535375143135 H 0.0 **** 0.06
20009 H 94.04880966105793 80.31868585176898 60.82272187379193 H 0.0 **** 0.06
20010 H 94.36859463603079 81.34534751774333 62.24231868390968 H 0.0 **** 0.06
20011 C 100.43733538297505 28.22431155276952 64.06848367134165 C 0.0 **** -0.24
20012 H 99.71092141443518 28.393282891463308 64.86294069380739 H 0.0 **** 0.06
20013 H 100.3807299190077 27.187055631043116 63.73938261838521 H 0.0 **** 0.06
20014 H 101.43942529832708 28.43418929998675 64.44201503797262 H 0.0 **** 0.06
20015 H 100.21732562315304 28.88377384035534 63.2295339057398 H 0.0 **** 0.06
20016 C 27.145157668052008 112.38284592777944 107.29870809725583 C 0.0 **** -0.24
20017 H 27.255531607335712 112.23423268552634 106.2236609458364 H 0.0 **** 0.06
20018 H 27.841309925196697 113.15296225299153 107.63198349296744 H 0.0 **** 0.06
20019 H 27.35861868312648 111.44889758487693 107.81806002494645 H 0.0 **** 0.06
20020 H 26.123815849466396 112.69505348824322 107.51828027287277 H 0.0 **** 0.06
20021 C 74.39166043577598 51.04916685780347 107.43471085898014 C 0.0 **** -0.24
20022 H 75.13345254006771 50.26484091334905 107.58369685768551 H 0.0 **** 0.06
20023 H 73.69311507477548 51.05215573162573 108.27149758175051 H 0.0 **** 0.06
20024 H 73.84918471443956 50.864198710532094 106.5079307312285 H 0.0 **** 0.06
20025 H 74.89262964895693 52.016267890553024 107.37513646233668 H 0.0 **** 0.06
20026 C 57.814580949949175 13.262858114589676 13.381385361996568 C 0.0 **** -0.24
20027 H 58.03019828208272 14.329861974703277 13.440533652764422 H 0.0 **** 0.06
20028 H 57.035237628210666 13.090091675898634 12.639270609872945 H 0.0 **** 0.06
20029 H 57.47652458573663 12.907327005032016 14.354900699506754 H 0.0 **** 0.06
20030 H 58.718130258849556 12.725684133851331 13.092715410555261 H 0.0 **** 0.06
20031 C 61.83330659976673 116.21680346342899 105.97382603616182 C 0.0 **** -0.24
20032 H 61.8898258413725 115.29423378788988 106.55159877794043 H 0.0 **** 0.06
20033 H 61.67501319623301 115.97730642306472 104.9221473992911 H 0.0 **** 0.06
20034 H 62.76406800322161 116.77289386450069 106.08492163814881 H 0.0 **** 0.06
20035 H 61.00258674311948 116.82128451498097 106.33750958977663 H 0.0 **** 0.06
20036 C 41.55481887267814 47.76177362198481 94.68436676713176 C 0.0 **** -0.24
20037 H 41.751738445814276 48.77128407911446 94.32616322667639 H 0.0 **** 0.06
20038 H 41.61399420376346 47.06212211201979 93.85014397725274 H 0.0 **** 0.06
20039 H 40.55753517328083 47.71941984860759 95.12404965622062 H 0.0 **** 0.06
20040 H 42.2951040824349 47.49331520735333 95.4376345960211 H 0.0 **** 0.06
20041 C 30.63408292811266 68.59114372243721 117.54298653572415 C 0.0 **** -0.24
20042 H 31.61167090171236 68.53012076437082 117.06355292261009 H 0.0 **** 0.06
20043 H 29.853740641931438 68.51694470610789 116.78581550430977 H 0.0 **** 0.06
20044 H 30.5446721574113 69.54375940375539 118.0648290682446 H 0.0 **** 0.06
20045 H 30.528123706607488 67.77503519753114 118.25683737060271 H 0.0 **** 0.06
20046 C 46.83564226212924 21.93013831500366 27.3635514647886 C 0.0 **** -0.24
20047 H 47.00735903034251 22.89474061767214 27.84361755753679 H 0.0 **** 0.06
20048 H 46.22713704585078 21.30402981645335 28.015926438411043 H 0.0 **** 0.06
20049 H 47.79223702273315 21.44231576961397 27.17872953757501 H 0.0 **** 0.06
20050 H 46.316555742033074 22.08303551084731 26.417868565880667 H 0.0 **** 0.06
20051 C 18.32111759613548 55.87472354243158 38.54682687398212 C 0.0 **** -0.24
20052 H 18.21504164228675 55.41037695803729 39.52709351763079 H 0.0 **** 0.06
20053 H 18.243890645259555 56.95794622185602 38.64745626157126 H 0.0 **** 0.06
20054 H 17.53203837551142 55.51415600606197 37.88699538002065 H 0.0 **** 0.06
20055 H 19.29268194990162 55.61711730968969 38.12667781748651 H 0.0 **** 0.06
20056 C 81.45251655210478 114.8361221441252 63.29671335189109 C 0.0 **** -0.24
20057 H 82.31046047611909 115.36607394517249 63.71180604803644 H 0.0 **** 0.06
20058 H 81.68315575353336 114.51168388305945 62.281566567436805 H 0.0 **** 0.06
20059 H 80.58955660395009 115.50117268417141 63.2777810446434 H 0.0 **** 0.06
20060 H 81.22825808891736 113.96639728593249 63.914139761894425 H 0.0 **** 0.06
20061 C 106.38071472563348 21.393586815510275 35.09270193182857 C 0.0 **** -0.24
20062 H 107.01053615374909 22.253333991226214 35.320908682360084 H 0.0 **** 0.06
20063 H 107.00829073613923 20.546853942426225 34.8151693281697 H 0.0 **** 0.06
20064 H 105.71675866868534 21.640194240545355 34.263381861528956 H 0.0 **** 0.06
20065 H 105.78695940900488 21.134837543717225 35.969313019049764 H 0.0 **** 0.06
20066 C 68.77950272288487 118.76489087955244 104.16951625904406 C 0.0 **** -0.24
20067 H 69.21034532386767 118.6649477278278 105.16532625045645 H 0.0 **** 0.06
20068 H 68.41862995490612 119.78426432326312 104.03060179331115 H 0.0 **** 0.06
20069 H 67.94908918809392 118.06663739753951 104.0607501963967 H 0.0 **** 0.06
20070 H 69.54011318980778 118.54346315359683 103.42000500453844 H 0.0 **** 0.06
20071 C 4.014911535808281 104.34279642823427 85.58987218886537 C 0.0 **** -0.24
20072 H 3.292197822843761 104.81768811846902 84.92617319504811 H 0.0 **** 0.06
20073 H 3.765917815745354 103.28716102669134 85.70150389557952 H 0.0 **** 0.06
20074 H 3.9859038554206023 104.82848563135781 86.56494248697115 H 0.0 **** 0.06
20075 H 5.014670340574696 104.43819021706716 85.16588404866962 H 0.0 **** 0.06
20076 C 55.61004171653275 10.805674923638492 95.03447237531202 C 0.0 **** -0.24
20077 H 55.10222459333448 10.580233696487298 94.09681967866157 H 0.0 **** 0.06
20078 H 55.510030917788384 9.958759697212187 95.71392219424854 H 0.0 **** 0.06
20079 H 55.162515941152634 11.689855681464962 95.4863269174956 H 0.0 **** 0.06
20080 H 56.666473680608505 10.992456344691732 94.83944461794306 H 0.0 **** 0.06
20081 C 85.82757330936033 13.612029205976285 96.42626071625637 C 0.0 **** -0.24
20082 H 84.93992466563475 13.058743386081233 96.12025053387276 H 0.0 **** 0.06
20083 H 86.20900999017525 13.198839874533178 97.36025976963941 H 0.0 **** 0.06
20084 H 85.57073748360406 14.661331700668228 96.5716677479682 H 0.0 **** 0.06
20085 H 86.59202742733262 13.528226373734014 95.65313096197656 H 0.0 **** 0.06
20086 C 73.58290232680446 36.566830691066826 115.8600157478554 C 0.0 **** -0.24
20087 H 72.81038012169012 36.682451979832024 115.10023243005428 H 0.0 **** 0.06
20088 H 73.56914224998741 37.42921906690525 116.52657896691251 H 0.0 **** 0.06
20089 H 74.55834118617025 36.495271352535624 115.3783852989798 H 0.0 **** 0.06
20090 H 73.39406773815 35.65965644085347 116.4354764721889 H 0.0 **** 0.06
20091 C 45.11843636184378 10.288226547577636 6.071373283139508 C 0.0 **** -0.24
20092 H 44.771064848349454 10.105659798992548 7.08795871711078 H 0.0 **** 0.06
20093 H 45.835392999205055 11.109267519755718 6.075307007557228 H 0.0 **** 0.06
20094 H 44.27008442793493 10.548301396606604 5.438941000609589 H 0.0 **** 0.06
20095 H 45.59810817714906 9.38870318747027 5.685084189848453 H 0.0 **** 0.06
20096 C 98.80316780844063 93.78200759012427 69.92543075198026 C 0.0 **** -0.24
20097 H 98.75938658424258 94.53293229752506 70.71434003836012 H 0.0 **** 0.06
20098 H 98.35288509026824 94.1829406883241 69.01741550578168 H 0.0 **** 0.06
20099 H 98.2591870739816 92.89207067269754 70.24057002409063 H 0.0 **** 0.06
20100 H 99.84411974972903 93.52166831956677 69.73082819485273 H 0.0 **** 0.06
20101 C 102.20898757217012 35.80692815620526 28.534035467721566 C 0.0 **** -0.24
20102 H 102.53617575534824 36.84597230732933 28.486815128782695 H 0.0 **** 0.06
20103 H 101.24449960746506 35.75273368145076 29.04003898463739 H 0.0 **** 0.06
20104 H 102.9431795740386 35.22004895079084 29.085613611330785 H 0.0 **** 0.06
20105 H 102.11207383684751 35.41121912680745 27.522732992301826 H 0.0 **** 0.06
20106 C 112.20136870708723 58.11497037455461 89.87716709641094 C 0.0 **** -0.24
20107 H 111.96835306806611 59.071058496130924 90.34556731762939 H 0.0 **** 0.06
20108 H 112.13891089140009 57.32141298349534 90.62225856607358 H 0.0 **** 0.06
20109 H 113.20967418925511 58.14835047058792 89.4659684566123 H 0.0 **** 0.06
20110 H 111.48888746511545 57.919006737436796 89.07624308795076 H 0.0 **** 0.06
20111 C 69.34785308143199 100.9429078732716 116.54927998260845 C 0.0 **** -0.24
20112 H 69.07462680348539 100.89788479425104 115.49480194966513 H 0.0 **** 0.06
20113 H 70.18294927373086 100.26656333590941 116.73639248158376 H 0.0 **** 0.06
20114 H 68.49422489764964 100.64281235557925 117.15776681531294 H 0.0 **** 0.06
20115 H 69.6387397830602 101.96121273233126 116.80635134098496 H 0.0 **** 0.06
20116 C 32.499792158015524 49.515941132639156 73.15338318523246 C 0.0 **** -0.24
20117 H 33.08185282748034 49.718285898856394 74.05172914502035 H 0.0 **** 0.06
20118 H 31.437560434953873 49.53881567754353 73.39586837023751 H 0.0 **** 0.06
20119 H 32.76341903308104 48.53285494633671 72.76337679049976 H 0.0 **** 0.06
20120 H 32.717435244410396 50.27502057939169 72.40103450456937 H 0.0 **** 0.06
20121 C 63.781785713544174 26.410896047705307 115.09822943987035 C 0.0 **** -0.24
20122 H 64.73276634835597 26.436543512680316 115.6308762703212 H 0.0 **** 0.06
20123 H 63.750426344686865 27.223935080418812 114.37223167938144 H 0.0 **** 0.06
20124 H 62.96326195350566 26.526322539462058 115.80892287960828 H 0.0 **** 0.06
20125 H 63.68193862318808 25.456948370263035 114.579699787153 H 0.0 **** 0.06
20126 C 112.29920194565548 24.80082748967925 110.93401065983221 C 0.0 **** -0.24
20127 H 111.93347252056876 23.832756273536205 110.59026840976227 H 0.0 **** 0.06
20128 H 112.5872340568607 24.727976898615367 111.98324129469219 H 0.0 **** 0.06
20129 H 111.51221063912612 25.54627821337823 110.82298170471253 H 0.0 **** 0.06
20130 H 113.16397168972958 25.093146308576337 110.33931199730446 H 0.0 **** 0.06
20131 C 34.419716759963535 48.460789524863145 22.564903044413313 C 0.0 **** -0.24
20132 H 35.189188417106664 49.19186286418335 22.31428025088661 H 0.0 **** 0.06
20133 H 33.761473599685786 48.31695812420384 21.708454562223835 H 0.0 **** 0.06
20134 H 33.83929370218587 48.82136200677691 23.414147490677635 H 0.0 **** 0.06
20135 H 34.89160846892827 47.51277891328324 22.824369229548324 H 0.0 **** 0.06
20136 C 36.905894778975686 67.28954732421482 49.13778467460645 C 0.0 **** -0.24
20137 H 37.41189719427079 66.65098025187172 49.86246548004752 H 0.0 **** 0.06
20138 H 37.64448369283059 67.75452313285098 48.48468782752522 H 0.0 **** 0.06
20139 H 36.34715927708565 68.06326739777421 49.66477469531574 H 0.0 **** 0.06
20140 H 36.2193779220968 66.68852097448405 48.540871326815676 H 0.0 **** 0.06
20141 C 109.22788119218194 30.17627622787751 2.872169110187599 C 0.0 **** -0.24
20142 H 108.82135219549986 29.998887662913575 3.867135922940122 H 0.0 **** 0.06
20143 H 110.31652646820999 30.213844099594482 2.9258139179482328 H 0.0 **** 0.06
20144 H 108.84999962360578 31.124418745400703 2.4896173404548563 H 0.0 **** 0.06
20145 H 108.92440924906833 29.369492976586912 2.205883086144013 H 0.0 **** 0.06
20146 C 26.50348362991093 112.71841835665833 64.94811039432966 C 0.0 **** -0.24
20147 H 25.422399699070752 112.60878867860002 64.86384045103574 H 0.0 **** 0.06
20148 H 26.79345006287491 113.7209681095247 64.63102188081697 H 0.0 **** 0.06
20149 H 26.99426826707625 111.97964753019829 64.31464637409366 H 0.0 **** 0.06
20150 H 26.80396724534785 112.56446810024325 65.9849172880262 H 0.0 **** 0.06
20151 C 88.87701930092422 11.419314128435644 112.00359155996733 C 0.0 **** -0.24
20152 H 89.1524425633142 12.466082820155947 112.13153253446166 H 0.0 **** 0.06
20153 H 89.49513594494164 10.97481753607562 111.22291350749362 H 0.0 **** 0.06
20154 H 87.82713922287712 11.351707479530091 111.71910656676141 H 0.0 **** 0.06
20155 H 89.03538313534361 10.885460010387249 112.94031681984848 H 0.0 **** 0.06
20156 C 76.06366262989275 65.29538214885196 21.43404243713668 C 0.0 **** -0.24
20157 H 75.61897319063578 64.35937010142149 21.771323167351795 H 0.0 **** 0.06
20158 H 75.28520731914153 66.0509242366694 21.33248459066268 H 0.0 **** 0.06
20159 H 76.54957683865575 65.14047271106858 20.4704849435811 H 0.0 **** 0.06
20160 H 76.8023928087465 65.62944143843916 22.163879263443604 H 0.0 **** 0.06
20161 C 110.0354889513762 0.4068262288767226 86.54675348845953 C 0.0 **** -0.24
20162 H 110.39708434134678 -0.5870374122942579 86.28065674394949 H 0.0 **** 0.06
20163 H 109.02414864212147 0.3295125064089799 86.9465684054033 H 0.0 **** 0.06
20164 H 110.02908172119164 1.039923823233691 85.65993563476735 H 0.0 **** 0.06
20165 H 110.69241334908291 0.8419138932748922 87.30052512701363 H 0.0 **** 0.06
20166 C 94.46409761755604 114.40092599323717 68.72208993411863 C 0.0 **** -0.24
20167 H 94.00675817403408 115.38488793257409 68.6115947337812 H 0.0 **** 0.06
20168 H 95.36354220913154 114.34765652542549 68.10901870186126 H 0.0 **** 0.06
20169 H 93.75755269116974 113.6348197218218 68.40047043427734 H 0.0 **** 0.06
20170 H 94.72552809018083 114.23726679564501 69.76756798137768 H 0.0 **** 0.06
20171 C 92.94058131586388 39.80193999009538 83.76715171203156 C 0.0 **** -0.24
20172 H 93.51450159829727 39.6502601826735 82.85205149127154 H 0.0 **** 0.06
20173 H 93.55026922398562 40.34148327695206 84.49233741357048 H 0.0 **** 0.06
20174 H 92.65316495067671 38.834821763217064 84.17988618796275 H 0.0 **** 0.06
20175 H 92.0450404829806 40.38165261539844 83.5420150965204 H 0.0 **** 0.06
20176 C 21.34545745933663 56.059732220473514 63.0126740123502 C 0.0 **** -0.24
20177 H 22.312935672986747 56.557863553663886 63.0604605422746 H 0.0 **** 0.06
20178 H 21.46560907206257 55.07582111193977 62.55749802068908 H 0.0 **** 0.06
20179 H 20.659342501853743 56.656278491594726 62.41205987899144 H 0.0 **** 0.06
20180 H 20.94436543732098 55.948207391125486 64.01956125273921 H 0.0 **** 0.06
20181 C 32.91603515673725 54.141951163865095 108.17400286718046 C 0.0 **** -0.24
20182 H 32.327027979278654 53.23242081326303 108.29123615890913 H 0.0 **** 0.06
20183 H 32.7002052276878 54.82303972148785 108.99723454286266 H 0.0 **** 0.06
20184 H 32.65959292466458 54.62051921847941 107.22910682020051 H 0.0 **** 0.06
20185 H 33.97606923077629 53.890061376911845 108.17785120541367 H 0.0 **** 0.06
20186 C 66.73672676056188 36.12003013798076 25.658043317536453 C 0.0 **** -0.24
20187 H 67.66733904950155 36.632649614949315 25.89799645624288 H 0.0 **** 0.06
20188 H 66.31268720514697 35.69280469534789 26.567797435958823 H 0.0 **** 0.06
20189 H 66.93464023731914 35.324541973359715 24.940406683312062 H 0.0 **** 0.06
20190 H 66.03069556586837 36.83040189853344 25.227212121449952 H 0.0 **** 0.06
20191 C 46.355578145379326 56.06533203387099 110.0275837436526 C 0.0 **** -0.24
20192 H 45.31718938824088 56.2873562234754 110.27387142792048 H 0.0 **** 0.06
20193 H 46.82902481299416 56.9560528594437 109.61514319507896 H 0.0 **** 0.06
20194 H 46.39011397075723 55.26171941640669 109.29128987140622 H 0.0 **** 0.06
20195 H 46.884339466231665 55.75537806513867 110.92841198276217 H 0.0 **** 0.06
20196 C 56.92271649684616 113.45504452599205 8.895118100960872 C 0.0 **** -0.24
20197 H 56.55224694548284 114.19161245680961 9.60687259714777 H 0.0 **** 0.06
20198 H 56.98854272569083 113.90719818998932 7.904989522868476 H 0.0 **** 0.06
20199 H 56.240335852348274 112.60569527311628 8.862605466293232 H 0.0 **** 0.06
20200 H 57.91144782501525 113.1149997032485 9.2052092537742 H 0.0 **** 0.06
20201 C 53.942175333524176 50.25008902801929 19.145921836261778 C 0.0 **** -0.24
20202 H 54.86726965392984 50.455595291946196 18.608952431613943 H 0.0 **** 0.06
20203 H 53.09105975123859 50.46579850857509 18.498681265021162 H 0.0 **** 0.06
20204 H 53.8909430883613 50.87892223099894 20.03559577393233 H 0.0 **** 0.06
20205 H 53.91786697604971 49.20069170284327 19.440826850495938 H 0.0 **** 0.06
20206 C 83.10918259142991 104.79493843983448 115.66313062769069 C 0.0 **** -0.24
20207 H 83.97840149269459 105.1490934468591 115.11029411147234 H 0.0 **** 0.06
20208 H 83.09028843584892 105.26238662323735 116.64859036141772 H 0.0 **** 0.06
20209 H 83.16587267527117 103.71217194400433 115.77524897113403 H 0.0 **** 0.06
20210 H 82.20168873324823 105.05628972990891 115.11970637855674 H 0.0 **** 0.06
20211 C 81.55792007381137 16.403836496650655 56.715715126033274 C 0.0 **** -0.24
20212 H 80.77716072380679 16.42278487131793 55.955458356337545 H 0.0 **** 0.06
20213 H 82.23065229649808 15.567075270079869 56.52555303158297 H 0.0 **** 0.06
20214 H 81.1033166411301 16.28762047683736 57.70006932282902 H 0.0 **** 0.06
20215 H 82.12009194322377 17.33761589650254 56.68263268569379 H 0.0 **** 0.06
20216 C 83.93456242818306 17.967385033104392 78.06600769480832 C 0.0 **** -0.24
20217 H 83.20144448376686 18.77280595303219 78.02327850119232 H 0.0 **** 0.06
20218 H 84.83124446516081 18.264356983924557 77.52003087830727 H 0.0 **** 0.06
20219 H 83.51381894793329 17.06962309824806 77.61450140626917 H 0.0 **** 0.06
20220 H 84.1922421654441 17.765922507269025 79.10537650537196 H 0.0 **** 0.06
20221 C 28.33580189450163 89.88343294446327 107.2120202537977 C 0.0 **** -0.24
20222 H 27.949596487037752 89.36491835157 106.3344573951072 H 0.0 **** 0.06
20223 H 28.578063592538797 90.91310007317625 106.94768243474016 H 0.0 **** 0.06
20224 H 29.234564235851252 89.37854595915738 107.56531180444378 H 0.0 **** 0.06
20225 H 27.581406241227114 89.8774672468887 107.99823531978345 H 0.0 **** 0.06
20226 C 80.90884481675741 53.04350674790342 23.00060850119212 C 0.0 **** -0.24
20227 H 81.57782313402078 52.227405981187985 22.727244038889978 H 0.0 **** 0.06
20228 H 80.277458779428 52.73201841181367 23.832174014685734 H 0.0 **** 0.06
20229 H 80.28453305297612 53.30248208544704 22.145699066215343 H 0.0 **** 0.06
20230 H 81.49801866132665 53.911080194586816 23.295940521026466 H 0.0 **** 0.06
20231 C 114.26968153224959 79.91167377493588 22.2313511801286 C 0.0 **** -0.24
20232 H 115.19419207942668 79.7118059712048 22.77273150700873 H 0.0 **** 0.06
20233 H 114.48761854661008 80.01789935289312 21.16824431590115 H 0.0 **** 0.06
20234 H 113.82344840354406 80.83399594378372 22.604437541736985 H 0.0 **** 0.06
20235 H 113.57546289887227 79.08522698673008 22.38016551354542 H 0.0 **** 0.06
20236 C 58.2079350373185 25.004212081427767 97.63402149911167 C 0.0 **** -0.24
20237 H 58.402598147452046 24.38464552821185 98.5096944721324 H 0.0 **** 0.06
20238 H 58.95207068718789 24.7929327052874 96.86637463821799 H 0.0 **** 0.06
20239 H 58.26343625775376 26.056033857195757 97.9150093121263 H 0.0 **** 0.06
20240 H 57.21303258831633 24.78401421117121 97.24701557733732 H 0.0 **** 0.06
20241 C 114.4041400980326 104.86636484419671 44.508998281680505 C 0.0 **** -0.24
20242 H 114.04308992253573 103.84353683324503 44.61288839012613 H 0.0 **** 0.06
20243 H 114.10659605411746 105.44752315125129 45.38173256193542 H 0.0 **** 0.06
20244 H 113.97817020832673 105.31292657474029 43.61101231687866 H 0.0 **** 0.06
20245 H 115.49211583899952 104.85993770730465 44.43028897424449 H 0.0 **** 0.06
20246 C 38.841145304550224 44.798933899249775 100.13216610290308 C 0.0 **** -0.24
20247 H 39.8173743161675 45.15102879391819 99.80084663015984 H 0.0 **** 0.06
20248 H 38.65823704621204 45.14213928529334 101.15044808921675 H 0.0 **** 0.06
20249 H 38.81863531404596 43.70996583921984 100.10517769252556 H 0.0 **** 0.06
20250 H 38.06915259009486 45.194192194564444 99.47192092163519 H 0.0 **** 0.06
20251 C 17.608231206343532 7.33258474733239 91.95919691362317 C 0.0 **** -0.24
20252 H 18.49666237405785 6.708751427991359 91.86190040859614 H 0.0 **** 0.06
20253 H 16.778941138267754 6.869970345981542 91.42390869448823 H 0.0 **** 0.06
20254 H 17.808625528952206 8.31747411115603 91.53784480160891 H 0.0 **** 0.06
20255 H 17.348288861998725 7.433232756403797 93.01320951162037 H 0.0 **** 0.06
20256 C 117.2103877791165 28.83850875790546 91.29831633851506 C 0.0 **** -0.24
20257 H 116.77065999678425 29.203131715657207 90.36972968476638 H 0.0 **** 0.06
20258 H 116.99130095502497 27.776149055731594 91.41023799105835 H 0.0 **** 0.06
20259 H 116.78930396537385 29.387540280841392 92.13979616813742 H 0.0 **** 0.06
20260 H 118.29050711753904 28.985984373740223 91.27139447037024 H 0.0 **** 0.06
20261 C 52.44276804066209 87.19135091965103 83.62827313230804 C 0.0 **** -0.24
20262 H 52.568904284827596 87.92027488377386 84.42853999166888 H 0.0 **** 0.06
20263 H 53.372202386908526 86.63640913242136 83.49244197135943 H 0.0 **** 0.06
20264 H 52.189959474635884 87.70826001158241 82.70279900518076 H 0.0 **** 0.06
20265 H 51.642178720083876 86.49993211444502 83.88934838932445 H 0.0 **** 0.06
20266 C 44.06996003105235 100.08267784435805 44.29024684089234 C 0.0 **** -0.24
20267 H 45.01063364244007 99.55152014017949 44.143089607128786 H 0.0 **** 0.06
20268 H 44.27611643208037 101.11927028893743 44.5552150662304 H 0.0 **** 0.06
20269 H 43.50685371825563 99.60630484769774 45.09374837012615 H 0.0 **** 0.06
20270 H 43.486484325527584 100.0512330086492 43.36944395029286 H 0.0 **** 0.06
20271 C 72.551966012418 91.09684088607685 35.24272415170495 C 0.0 **** -0.24
20272 H 72.11239444374439 90.28296272344883 34.66526610232598 H 0.0 **** 0.06
20273 H 72.38625615632736 90.91861242784086 36.30496018872537 H 0.0 **** 0.06
20274 H 72.08442537115116 92.03872085520993 34.95426706520603 H 0.0 **** 0.06
20275 H 73.62231713433368 91.14616143015166 35.04438482339388 H 0.0 **** 0.06
20276 C 81.11878566812959 88.06849233737788 41.760295496823005 C 0.0 **** -0.24
20277 H 81.25348256755811 89.12604162468037 41.53249769278659 H 0.0 **** 0.06
20278 H 82.0329976457314 87.52640074204751 41.51954728298829 H 0.0 **** 0.06
20279 H 80.29471018908751 87.6724287475391 41.16697956048296 H 0.0 **** 0.06
20280 H 80.8934148648209 87.9513383468466 42.819990960527754 H 0.0 **** 0.06
20281 C 109.5352315332749 63.21355869582408 57.091868285817554 C 0.0 **** -0.24
20282 H 108.80085921298613 63.323388964730384 56.29315228666047 H 0.0 **** 0.06
20283 H 110.119464743805 62.308323066328285 56.92652445929136 H 0.0 **** 0.06
20284 H 109.02099499126976 63.144183287213025 58.05002451247873 H 0.0 **** 0.06
20285 H 110.19848887239945 64.07833373689539 57.09690617059985 H 0.0 **** 0.06
20286 C 77.32681102610053 102.46597454237155 49.90903714905414 C 0.0 **** -0.24
20287 H 76.59335845369151 102.49116129378166 50.71481410753108 H 0.0 **** 0.06
20288 H 76.89433994321166 101.97227921290681 49.038549769775386 H 0.0 **** 0.06
20289 H 78.20967123906905 101.91623115493059 50.23801545535707 H 0.0 **** 0.06
20290 H 77.61122375596548 103.48480835428035 49.64568635328277 H 0.0 **** 0.06
20291 C 57.48019331631531 48.72460284548515 91.24837199726676 C 0.0 **** -0.24
20292 H 58.09961645388745 48.963051196720926 90.38334369052109 H 0.0 **** 0.06
20293 H 56.89399994798703 47.82896538490954 91.03934203726169 H 0.0 **** 0.06
20294 H 56.810072977972425 49.55898373830192 91.45593847040698 H 0.0 **** 0.06
20295 H 58.119090541043875 48.54686183576149 92.1140440491468 H 0.0 **** 0.06
20296 C 41.002305652202296 32.81704474695144 20.308542048650793 C 0.0 **** -0.24
20297 H 40.81554442234906 32.47176076833464 21.325564076830915 H 0.0 **** 0.06
20298 H 41.90364036117006 33.42973545103112 20.29274935042082 H 0.0 **** 0.06
20299 H 40.154181048826814 33.40661234245752 19.963239048726848 H 0.0 **** 0.06
20300 H 41.137241182760874 31.956641565574863 19.653187693557754 H 0.0 **** 0.06
20301 C 43.229402190482176 48.96326471821749 24.98076655411012 C 0.0 **** -0.24
20302 H 44.140249601301605 48.42045813176665 24.726792907695824 H 0.0 **** 0.06
20303 H 42.79856548637031 48.54333812666465 25.889548126380788 H 0.0 **** 0.06
20304 H 42.51398452216557 48.87412465320743 24.163081899770447 H 0.0 **** 0.06
20305 H 43.46695497946274 50.01436765011829 25.14274751642418 H 0.0 **** 0.06
20306 C 108.55707351023284 100.06832629639513 91.36684253834221 C 0.0 **** -0.24
20307 H 107.98015173093088 100.49333933662112 90.54617654113679 H 0.0 **** 0.06
20308 H 107.96757566429571 99.29762068582528 91.86436819075357 H 0.0 **** 0.06
20309 H 108.80676904879016 100.853106454813 92.07961017413578 H 0.0 **** 0.06
20310 H 109.47422210460809 99.62776737259267 90.97558575135258 H 0.0 **** 0.06
20311 C 71.56580364943107 107.12391501580936 31.466225696624846 C 0.0 **** -0.24
20312 H 72.02133312085411 106.66367221204459 30.5896779192935 H 0.0 **** 0.06
20313 H 72.3430976857041 107.56577852421569 32.09062641794672 H 0.0 **** 0.06
20314 H 71.02804692072561 106.36609414924999 32.03670431328649 H 0.0 **** 0.06
20315 H 70.8694302247039 107.90057789301241 31.14817465085728 H 0.0 **** 0.06
20316 C 25.547036924643805 118.7645868384953 29.157876944863716 C 0.0 **** -0.24
20317 H 25.533745303396756 119.16802158866876 28.144749915232836 H 0.0 **** 0.06
20318 H 24.69104143080878 119.1483228287808 29.71341362484165 H 0.0 **** 0.06
20319 H 26.468746000275786 119.06594598222027 29.655533062246462 H 0.0 **** 0.06
20320 H 25.495816774224807 117.67659055088535 29.115744469981053 H 0.0 **** 0.06
20321 C 107.42632398412866 25.888656600574535 95.99929507629008 C 0.0 **** -0.24
20322 H 106.53152578885317 25.89274149556882 96.62185999841014 H 0.0 **** 0.06
20323 H 108.29150479631562 25.626205032082026 96.60801249598421 H 0.0 **** 0.06
20324 H 107.57268258088789 26.878881751244364 95.56686828300838 H 0.0 **** 0.06
20325 H 107.30899760656774 25.157629582914858 95.19903723179146 H 0.0 **** 0.06
20326 C 117.21672666584927 108.01507196620341 43.5285427510906 C 0.0 **** -0.24
20327 H 116.1576120963414 108.1317380070607 43.2964996606876 H 0.0 **** 0.06
20328 H 117.66510391920436 107.30714171807722 42.83009856244786 H 0.0 **** 0.06
20329 H 117.32628439385205 107.64021598943557 44.54593581240789 H 0.0 **** 0.06
20330 H 117.71639468466302 108.97955472665907 43.43989499562073 H 0.0 **** 0.06
20331 C 54.7652749483417 0.7169216098797051 39.04840660792187 C 0.0 **** -0.24
20332 H 55.42546756133387 1.5803758535606107 39.125126909504445 H 0.0 **** 0.06
20333 H 53.79789330538395 0.9589668617781939 39.487795257541194 H 0.0 **** 0.06
20334 H 55.20592981259362 -0.12548536682200506 39.58148102966748 H 0.0 **** 0.06
20335 H 54.632636831370604 0.45328397643133655 37.99935662428703 H 0.0 **** 0.06
20336 C 94.31537962648486 72.8317357991964 114.90710649775328 C 0.0 **** -0.24
20337 H 93.3108502793904 72.41750323716661 114.82431331780417 H 0.0 **** 0.06
20338 H 94.26293595559753 73.82911767175324 115.34337890850885 H 0.0 **** 0.06
20339 H 94.7655618858519 72.89076921902415 113.91689516985734 H 0.0 **** 0.06
20340 H 94.92207071756297 72.18711299806114 115.54402957211177 H 0.0 **** 0.06
20341 C 41.0465762867909 116.94419326736998 11.39588967312255 C 0.0 **** -0.24
20342 H 40.36070876279386 116.27673959302248 10.87553323948772 H 0.0 **** 0.06
20343 H 41.52862282087643 116.4061154908569 12.212437924324533 H 0.0 **** 0.06
20344 H 40.492690343000874 117.79395357981124 11.796386128565388 H 0.0 **** 0.06
20345 H 41.80436642964971 117.30144661716304 10.698309042922475 H 0.0 **** 0.06
20346 C 116.47119339290036 50.73670272944085 73.66699344485605 C 0.0 **** -0.24
20347 H 115.56719022781813 50.12938178475889 73.61901290582122 H 0.0 **** 0.06
20348 H 116.71721807943646 50.93988821540066 74.70969289134837 H 0.0 **** 0.06
20349 H 116.30351292189754 51.678465188647266 73.14235888014306 H 0.0 **** 0.06
20350 H 117.29488261770588 50.20034495537709 73.19619523932278 H 0.0 **** 0.06
20351 C 34.89718674412404 117.93311072619814 113.53107418403862 C 0.0 **** -0.24
20352 H 35.56134091436216 117.95824429607282 114.3950273735596 H 0.0 **** 0.06
20353 H 33.964234939314025 118.44205826757504 113.77596594614516 H 0.0 **** 0.06
20354 H 34.68758826112988 116.89795389532723 113.26426658177756 H 0.0 **** 0.06
20355 H 35.37560411165798 118.43539674010397 112.69062899371353 H 0.0 **** 0.06
20356 C 17.567888561650744 61.38051263359728 80.42836391944704 C 0.0 **** -0.24
20357 H 18.524611148500753 61.14175314755721 79.96311623432743 H 0.0 **** 0.06
20358 H 16.976234461656045 61.9931605471661 79.74765945557644 H 0.0 **** 0.06
20359 H 17.741730281046898 61.93072374601775 81.3534095347479 H 0.0 **** 0.06
20360 H 17.030532154671114 60.4579820309923 80.64891769794636 H 0.0 **** 0.06
20361 C 102.90876630796328 46.37369140019143 34.4746454274543 C 0.0 **** -0.24
20362 H 102.58560030877436 45.42886790313662 34.03610358872902 H 0.0 **** 0.06
20363 H 103.69801315673493 46.184151229490794 35.202522158864205 H 0.0 **** 0.06
20364 H 102.06360832070644 46.851281088367045 34.97009534523685 H 0.0 **** 0.06
20365 H 103.2869119308362 47.02739937596584 33.68900472857038 H 0.0 **** 0.06
20366 C 103.73684142532247 38.63604123173852 57.087442722059336 C 0.0 **** -0.24
20367 H 102.82089487845298 38.29521201083473 57.56990092973314 H 0.0 **** 0.06
20368 H 104.05050994901359 37.902181765935694 56.344355936923364 H 0.0 **** 0.06
20369 H 104.5202208842951 38.752249327876655 57.83647268043893 H 0.0 **** 0.06
20370 H 103.55558201869923 39.59313771977756 56.59928510849409 H 0.0 **** 0.06
20371 C 0.5584230035944291 5.893805553873904 27.742420759499296 C 0.0 **** -0.24
20372 H 0.2549844775435215 5.927008267679952 28.78846577194532 H 0.0 **** 0.06
20373 H 1.0188309822823491 6.84255338421228 27.466930994941954 H 0.0 **** 0.06
20374 H -0.3175571180161789 5.719798522760314 27.11689538376885 H 0.0 **** 0.06
20375 H 1.275282187609971 5.085447262726248 27.596944384955577 H 0.0 **** 0.06
20376 C 20.168618206905194 45.96007797136832 40.6117970780295 C 0.0 **** -0.24
20377 H 20.257803824539565 46.269737316422436 39.57092266885786 H 0.0 **** 0.06
20378 H 21.149257492554682 45.668853829658374 40.98932947696747 H 0.0 **** 0.06
20379 H 19.48656704562137 45.112354255483325 40.68186362775185 H 0.0 **** 0.06
20380 H 19.781251057304416 46.7878159901297 41.20572891292656 H 0.0 **** 0.06
20381 C 78.31608215119104 91.63146089562349 53.64535221373012 C 0.0 **** -0.24
20382 H 77.62372692723409 91.57895448461414 52.804931540225624 H 0.0 **** 0.06
20383 H 78.19537612269048 92.58776187585181 54.155818814189246 H 0.0 **** 0.06
20384 H 79.33878249638485 91.54059496276804 53.280196191176955 H 0.0 **** 0.06
20385 H 78.10426728068003 90.8186796723922 54.340956832569276 H 0.0 **** 0.06
20386 C 54.12161018445589 105.55378248534487 1.7827564464765544 C 0.0 **** -0.24
20387 H 53.2592899040717 104.96573836715913 2.098419990409809 H 0.0 **** 0.06
20388 H 55.03705310898115 105.06399065522317 2.1147636568011876 H 0.0 **** 0.06
20389 H 54.06131726143472 106.54995192110141 2.2216719498914586 H 0.0 **** 0.06
20390 H 54.12645568019639 105.63517916567952 0.6954470530775154 H 0.0 **** 0.06
20391 C 77.70420448210666 5.03334448753057 69.45329846679903 C 0.0 **** -0.24
20392 H 77.61932735140712 5.981111618155836 68.92179409251898 H 0.0 **** 0.06
20393 H 76.97935628593055 5.0079194059262875 70.26716592911666 H 0.0 **** 0.06
20394 H 78.71062175368559 4.934123128339849 69.85980425848038 H 0.0 **** 0.06
20395 H 77.50775748144983 4.212202957934238 68.76458177582899 H 0.0 **** 0.06
20396 C 96.345139206646 25.61046781469286 27.80907259630527 C 0.0 **** -0.24
20397 H 95.98713469007086 26.6367191423571 27.723488825475187 H 0.0 **** 0.06
20398 H 97.38791196978593 25.563322872377384 27.494283901353782 H 0.0 **** 0.06
20399 H 95.74279997844926 24.961769291035104 27.172592207350846 H 0.0 **** 0.06
20400 H 96.26211586734203 25.281908919550887 28.844817119810642 H 0.0 **** 0.06
20401 C 17.657398170385804 102.33928673036257 8.340307879511315 C 0.0 **** -0.24
20402 H 17.122593497858333 102.10727248033442 9.261980267580341 H 0.0 **** 0.06
20403 H 17.201894608677918 103.20890645796919 7.865392442809764 H 0.0 **** 0.06
20404 H 17.602570522951567 101.48630348274858 7.664423986539745 H 0.0 **** 0.06
20405 H 18.700648062329293 102.55462680251651 8.570635618523028 H 0.0 **** 0.06
20406 C 75.89119408867293 13.228287478096092 35.02555232039424 C 0.0 **** -0.24
20407 H 75.26091263598812 13.951838525885051 35.54157720348809 H 0.0 **** 0.06
20408 H 76.90525454830788 13.281074010537736 35.42304394810594 H 0.0 **** 0.06
20409 H 75.90698439460459 13.453346809021468 33.95902264445442 H 0.0 **** 0.06
20410 H 75.49197916227882 12.224524795422582 35.179092635123084 H 0.0 **** 0.06
20411 C 11.259253042991105 32.27414125807587 97.0269045194712 C 0.0 **** -0.24
20412 H 11.353957424151076 32.04214084200589 95.96654259955926 H 0.0 **** 0.06
20413 H 10.213793277149875 32.47383860105441 97.26336690144171 H 0.0 **** 0.06
20414 H 11.859573534025856 33.15310985197618 97.26123777645083 H 0.0 **** 0.06
20415 H 11.6093948289369 31.42708591626888 97.61734383309181 H 0.0 **** 0.06
20416 C 93.8224011348477 86.21798413619388 49.49823419963772 C 0.0 **** -0.24
20417 H 94.47919973730293 85.78846467652957 48.7426780344058 H 0.0 **** 0.06
20418 H 93.04642031934083 86.80959945553252 49.010062308241885 H 0.0 **** 0.06
20419 H 94.40205204298402 86.85789118749244 50.16268456899189 H 0.0 **** 0.06
20420 H 93.36012827007465 85.4181791043705 50.07553325059328 H 0.0 **** 0.06
20421 C 71.51933388573758 45.541204896158455 36.533638532538475 C 0.0 **** -0.24
20422 H 71.64094475518095 44.939791516944226 37.43553454562746 H 0.0 **** 0.06
20423 H 71.9319082940419 46.53551258941754 36.701606023445635 H 0.0 **** 0.06
20424 H 70.45948041053109 45.62223275833033 36.292255710188385 H 0.0 **** 0.06
20425 H 72.0453188674339 45.06374434897119 35.706332754478495 H 0.0 **** 0.06
20426 C 117.76107382135973 76.73495937465913 83.63827644155475 C 0.0 **** -0.24
20427 H 117.2135025966299 75.82734443979945 83.38596630753034 H 0.0 **** 0.06
20428 H 117.94221349075377 76.76293321249747 84.71332970808726 H 0.0 **** 0.06
20429 H 117.17395805001206 77.60662325560159 83.3459327600172 H 0.0 **** 0.06
20430 H 118.7134445586218 76.74481218595452 83.10819015620984 H 0.0 **** 0.06
20431 C 43.705447935789664 57.30123443820488 107.83850753801173 C 0.0 **** -0.24
20432 H 42.74702439124022 57.34858450321379 108.35761925834194 H 0.0 **** 0.06
20433 H 44.035936790194796 56.26399905775286 107.78146838122211 H 0.0 **** 0.06
20434 H 44.44282313691107 57.889064014656505 108.38504277299978 H 0.0 **** 0.06
20435 H 43.59310547330216 57.703033789787675 106.83177421157544 H 0.0 **** 0.06
20436 C 29.615757082793095 4.662991629670373 50.11506090032057 C 0.0 **** -0.24
20437 H 29.259244264917527 3.89931297581073 49.422322698728095 H 0.0 **** 0.06
20438 H 28.971570153768255 5.540437504144933 50.05001809468155 H 0.0 **** 0.06
20439 H 30.63694655298997 4.941633511280628 49.853409633388736 H 0.0 **** 0.06
20440 H 29.594667432578547 4.26993747656789 51.13162533137765 H 0.0 **** 0.06
20441 C 11.511125059023755 50.01851729071893 103.72328855107128 C 0.0 **** -0.24
20442 H 10.98639167679266 50.49659287568393 104.55059272450936 H 0.0 **** 0.06
20443 H 12.583583307932326 50.03079498105141 103.91810421197673 H 0.0 **** 0.06
20444 H 11.302061623539757 50.55997991903401 102.80074789420013 H 0.0 **** 0.06
20445 H 11.170554963491472 48.9878487124638 103.62472966586921 H 0.0 **** 0.06
20446 C 46.86264583112745 76.00008556902867 63.158725090617395 C 0.0 **** -0.24
20447 H 46.71990640121629 76.97126496874526 62.68402555949484 H 0.0 **** 0.06
20448 H 46.15798554843201 75.28274970425707 62.73631084236763 H 0.0 **** 0.06
20449 H 46.68934294723607 76.09127707428698 64.23114376273071 H 0.0 **** 0.06
20450 H 47.88149086986897 75.65570405971553 62.98307003964021 H 0.0 **** 0.06
20451 C 37.79595109683447 18.408958503823587 100.2435426326889 C 0.0 **** -0.24
20452 H 38.605129948564425 18.736337693092377 99.5902991443406 H 0.0 **** 0.06
20453 H 38.21363314207443 17.894803169380964 101.10812661702258 H 0.0 **** 0.06
20454 H 37.14088761156499 17.730063794626915 99.69700772192098 H 0.0 **** 0.06
20455 H 37.22444928906154 19.27526127949404 100.5758192022368 H 0.0 **** 0.06
20456 C 105.52321590603822 60.669203925117934 28.683757807716972 C 0.0 **** -0.24
20457 H 105.71336121139825 59.852128155757164 27.98806858209474 H 0.0 **** 0.06
20458 H 104.50031632204039 60.59988256552395 29.055954866496663 H 0.0 **** 0.06
20459 H 105.65963342043662 61.62169792125983 28.172602291633382 H 0.0 **** 0.06
20460 H 106.21924909454225 60.602649747295494 29.5203287542723 H 0.0 **** 0.06
20461 C 108.76140765834319 92.55159749726886 29.430820050835102 C 0.0 **** -0.24
20462 H 107.86103951825112 92.87589069014521 28.9084918599699 H 0.0 **** 0.06
20463 H 108.48193390763123 92.05002727929912 30.358720616157022 H 0.0 **** 0.06
20464 H 109.3811363921292 93.41904537463117 29.659164262649128 H 0.0 **** 0.06
20465 H 109.32074346509731 91.86185320413693 28.798956283762685 H 0.0 **** 0.06
20466 C 45.450968160684454 19.766329906984623 65.74051024046469 C 0.0 **** -0.24
20467 H 45.87108051019382 19.236566884347923 66.5957636251903 H 0.0 **** 0.06
20468 H 44.95321721974611 19.05476372779256 65.0816770711013 H 0.0 **** 0.06
20469 H 46.25080374386292 20.268087658717576 65.19612273764966 H 0.0 **** 0.06
20470 H 44.72990467165528 20.505391337552254 66.08968385595676 H 0.0 **** 0.06
20471 C 48.88401911790498 74.7689143577783 116.09185465812743 C 0.0 **** -0.24
20472 H 49.45332839695257 74.18716668977132 116.81664645648524 H 0.0 **** 0.06
20473 H 49.01187824143654 75.83158926778233 116.29945929653292 H 0.0 **** 0.06
20474 H 47.82736906408268 74.50819049297698 116.1671701260227 H 0.0 **** 0.06
20475 H 49.242349099848475 74.54846755011567 115.08671469201738 H 0.0 **** 0.06
20476 C 87.4055282744518 94.30392318343723 70.88120416898971 C 0.0 **** -0.24
20477 H 87.66075947187574 94.60702411677445 71.89637972009001 H 0.0 **** 0.06
20478 H 86.41401739509465 94.68065485469347 70.62850268767642 H 0.0 **** 0.06
20479 H 87.40861083997592 93.21550730928902 70.81611193937499 H 0.0 **** 0.06
20480 H 88.13872868614837 94.7113939254678 70.18469547758173 H 0.0 **** 0.06
20481 C 108.19830059910399 73.50019471484495 27.571221125447238 C 0.0 **** -0.24
20482 H 108.18647305767195 74.02746425845115 28.525054705289904 H 0.0 **** 0.06
20483 H 107.18213204622538 73.20562420408893 27.30634693065545 H 0.0 **** 0.06
20484 H 108.8238400723767 72.61167030615204 27.654984444101174 H 0.0 **** 0.06
20485 H 108.59964601678851 74.15646898758689 26.799249311746024 H 0.0 **** 0.06
20486 C 67.1234602876248 9.879437942135674 96.11077384135626 C 0.0 **** -0.24
20487 H 68.18347779415444 9.707592840226777 95.92270007492499 H 0.0 **** 0.06
20488 H 66.61932768313284 8.922176341293735 96.24392083227409 H 0.0 **** 0.06
20489 H 66.68484044054048 10.407225339485855 95.26357333563402 H 0.0 **** 0.06
20490 H 67.00783808870287 10.481015676999014 97.01241695945032 H 0.0 **** 0.06
20491 C 1.1448336102545085 29.602485506985715 75.12005018445169 C 0.0 **** -0.24
20492 H 0.17491828473121984 30.062287766187694 75.30785240279661 H 0.0 **** 0.06
20493 H 1.1638016889884852 29.19473361650097 74.10930333952996 H 0.0 **** 0.06
20494 H 1.3120311112687375 28.80159109964137 75.83975058699741 H 0.0 **** 0.06
20495 H 1.928193837254753 30.35409703915832 75.2237299805968 H 0.0 **** 0.06
20496 C 32.42684086215754 88.44027269690832 9.98313419808181 C 0.0 **** -0.24
20497 H 32.976603164994906 88.43727178365577 10.924848608605139 H 0.0 **** 0.06
20498 H 33.040299340296265 87.98713703507303 9.20405373518875 H 0.0 **** 0.06
20499 H 32.18643183456189 89.46626940732108 9.705990245568586 H 0.0 **** 0.06
20500 H 31.50581277252293 87.8698827887319 10.09888443566874 H 0.0 **** 0.06
20501 C 30.560480195913442 111.33831525155361 60.69973794960595 C 0.0 **** -0.24
20502 H 29.672085350072877 111.30065120757052 60.06960021424206 H 0.0 **** 0.06
20503 H 30.27954285594447 111.65967161324176 61.70320241314792 H 0.0 **** 0.06
20504 H 31.27578703039373 112.0440325667818 60.27799544352831 H 0.0 **** 0.06
20505 H 31.01293137764793 110.34749699000756 60.749393931871026 H 0.0 **** 0.06
20506 C 70.09847965444342 71.00329468947615 88.07489353407951 C 0.0 **** -0.24
20507 H 69.63202300250376 70.11122985215349 87.6551803342168 H 0.0 **** 0.06
20508 H 71.11236523747664 70.76495264242783 88.3952599204884 H 0.0 **** 0.06
20509 H 69.51758316285975 71.347611989674 88.93071562485093 H 0.0 **** 0.06
20510 H 70.12994331980968 71.78715164374975 87.31843543493605 H 0.0 **** 0.06
20511 C 84.7819270717549 55.717282043178734 40.79603711890324 C 0.0 **** -0.24
20512 H 84.31416097803904 56.05749607387734 41.71924445829219 H 0.0 **** 0.06
20513 H 84.02056791745397 55.60293762015656 40.023418032395305 H 0.0 **** 0.06
20514 H 85.2719946031292 54.75934670389788 40.9690349458499 H 0.0 **** 0.06
20515 H 85.52169698948404 56.45056298898472 40.47232399116016 H 0.0 **** 0.06
20516 C 30.45172500322365 70.68922862929986 40.22789826546227 C 0.0 **** -0.24
20517 H 30.36772007071999 71.53038782529569 40.91580300516481 H 0.0 **** 0.06
20518 H 29.47403891369642 70.47267122602472 39.797544500532105 H 0.0 **** 0.06
20519 H 30.813071111775557 69.81354109535309 40.76846925119022 H 0.0 **** 0.06
20520 H 31.153123498387153 70.93976120440908 39.43138385188652 H 0.0 **** 0.06
20521 C 27.225060795851064 66.18136715450146 48.492264612986276 C 0.0 **** -0.24
20522 H 26.490417488636844 66.7886194559571 47.96371054143816 H 0.0 **** 0.06
20523 H 28.04014402950957 65.92584416068232 47.814969324796124 H 0.0 **** 0.06
20524 H 26.749596315110935 65.26729529878531 48.85005900600652 H 0.0 **** 0.06
20525 H 27.617656722531372 66.74170065354849 49.34006252820569 H 0.0 **** 0.06
20526 C 108.1996700257545 75.40467803008988 118.25342437605653 C 0.0 **** -0.24
20527 H 109.01698595774388 74.95492417430825 117.6896631622225 H 0.0 **** 0.06
20528 H 108.60657945391213 75.97374594455468 119.09043160782022 H 0.0 **** 0.06
20529 H 107.54500021735745 74.61947611970245 118.631518240547 H 0.0 **** 0.06
20530 H 107.63234162378222 76.07015751150516 117.6030190464304 H 0.0 **** 0.06
20531 C 117.09585959217947 87.10115176545787 46.14737234759764 C 0.0 **** -0.24
20532 H 117.60976842336855 87.1769588636592 47.10556103403732 H 0.0 **** 0.06
20533 H 117.69009767612047 87.59322353395413 45.376794578274655 H 0.0 **** 0.06
20534 H 116.12111164992726 87.58444083185202 46.218854779880246 H 0.0 **** 0.06
20535 H 116.96280976692017 86.05126975108874 45.88875294555464 H 0.0 **** 0.06
20536 C 63.02838879400741 30.738653322471947 3.6994341382322773 C 0.0 **** -0.24
20537 H 63.14750409118818 31.742575036806358 4.107443122268933 H 0.0 **** 0.06
20538 H 62.351336558934236 30.772744792607313 2.8452200674687447 H 0.0 **** 0.06
20539 H 62.61621857453275 30.08231009389769 4.4651055930167445 H 0.0 **** 0.06
20540 H 63.99861966405683 30.359855292422452 3.378649694801254 H 0.0 **** 0.06
20541 C 42.795369417161965 0.1701932748646442 74.1802986719168 C 0.0 **** -0.24
20542 H 43.64303565844307 0.5670985682315575 74.74038062840475 H 0.0 **** 0.06
20543 H 42.38613594536969 0.9516736958536569 73.54030580695925 H 0.0 **** 0.06
20544 H 42.02887609036014 -0.17113670838504902 74.8759022794751 H 0.0 **** 0.06
20545 H 43.12785386430835 -0.6672442696896468 73.56573939550304 H 0.0 **** 0.06
20546 C 91.06031729981459 103.57196074570646 14.834898574804186 C 0.0 **** -0.24
20547 H 91.42742857192223 102.56126435832681 15.014179678718449 H 0.0 **** 0.06
20548 H 90.70924286142548 103.65364301616728 13.805376638949923 H 0.0 **** 0.06
20549 H 91.86750587661771 104.2860225616082 15.00119334830083 H 0.0 **** 0.06
20550 H 90.23894295793912 103.7865557689185 15.517642056751981 H 0.0 **** 0.06
20551 C 43.82347642805016 97.13767569713033 76.97858166528215 C 0.0 **** -0.24
20552 H 44.00526255272684 96.76314174279179 77.98549409344014 H 0.0 **** 0.06
20553 H 42.74956201346325 97.22459038793221 76.81231904604769 H 0.0 **** 0.06
20554 H 44.24837693082247 96.44544544300277 76.2510904572004 H 0.0 **** 0.06
20555 H 44.29028257755258 98.11536077101366 76.86435640790083 H 0.0 **** 0.06
20556 C 2.076988565369618 38.072653248512154 73.05078774323042 C 0.0 **** -0.24
20557 H 1.9647682270126552 39.11523647362567 72.75543319736047 H 0.0 **** 0.06
20558 H 1.7019794901647742 37.4279657663161 72.25567024606505 H 0.0 **** 0.06
20559 H 1.5104517699511462 37.890845278259036 73.96344398940727 H 0.0 **** 0.06
20560 H 3.130227520021606 37.855983655357484 73.22742727272686 H 0.0 **** 0.06
20561 C 101.80624218989686 97.76610699811022 1.5896249331276806 C 0.0 **** -0.24
20562 H 102.44102690359244 97.97388842782271 2.4517443497042564 H 0.0 **** 0.06
20563 H 101.06626218123114 97.0114424839382 1.8581145788963909 H 0.0 **** 0.06
20564 H 102.42011791996916 97.39811133777661 0.7674227915258314 H 0.0 **** 0.06
20565 H 101.29902628347233 98.68004386498916 1.283661073736539 H 0.0 **** 0.06
20566 C 91.58336075782145 0.23616540042812062 41.150853472288645 C 0.0 **** -0.24
20567 H 92.05493884569407 -0.7071713435712184 41.42543030656708 H 0.0 **** 0.06
20568 H 90.63082971705595 0.03603233031697073 40.65879349505792 H 0.0 **** 0.06
20569 H 92.23625590416256 0.7825935710348517 40.46985510117281 H 0.0 **** 0.06
20570 H 91.41212721585651 0.831531518782981 42.047169138482104 H 0.0 **** 0.06
20571 C 48.71198183150457 77.7713861524914 31.491311440430337 C 0.0 **** -0.24
20572 H 49.6735365147608 77.2876747316156 31.315358307857366 H 0.0 **** 0.06
20573 H 48.058969126855615 77.0921484396923 32.0399052281288 H 0.0 **** 0.06
20574 H 48.25308548715745 78.02480137128234 30.535439867324385 H 0.0 **** 0.06
20575 H 48.864251384111185 78.67995799860952 32.07390456867475 H 0.0 **** 0.06
20576 C 116.24313374151507 5.0315191633618355 9.121470318796995 C 0.0 **** -0.24
20577 H 116.31693211926624 3.947152945236553 9.211283165541825 H 0.0 **** 0.06
20578 H 115.39385674627677 5.386459880604633 9.70641845230291 H 0.0 **** 0.06
20579 H 116.10151303143755 5.30039286963455 8.074735362859204 H 0.0 **** 0.06
20580 H 117.15886827867236 5.490437480209948 9.494129415157921 H 0.0 **** 0.06
20581 C 6.832515333955968 49.89502286153197 112.97778108221108 C 0.0 **** -0.24
20582 H 7.825499109772977 49.52572266390328 113.23403711065978 H 0.0 **** 0.06
20583 H 6.252698883647469 50.03911213793245 113.88949964520941 H 0.0 **** 0.06
20584 H 6.329494541250739 49.17158845142143 112.3361797247361 H 0.0 **** 0.06
20585 H 6.923824910115513 50.845635715759585 112.4513132347146 H 0.0 **** 0.06
20586 C 37.44614822804252 47.78137100655335 25.999925109222602 C 0.0 **** -0.24
20587 H 37.61059435519425 46.98586827699417 25.272418058995527 H 0.0 **** 0.06
20588 H 37.674366452070615 48.74445715649568 25.543296068577035 H 0.0 **** 0.06
20589 H 38.09561983023934 47.62458903061251 26.86174044834189 H 0.0 **** 0.06
20590 H 36.4055148000287 47.768948500070934 26.322584783071875 H 0.0 **** 0.06
20591 C 103.89208682445545 23.761097797543812 64.70536811225799 C 0.0 **** -0.24
20592 H 103.26060743780906 24.64819431623448 64.65108043168962 H 0.0 **** 0.06
20593 H 103.72528677831619 23.254672877792416 65.65619466297096 H 0.0 **** 0.06
20594 H 104.93906944886103 24.056642735533785 64.62936671154966 H 0.0 **** 0.06
20595 H 103.64428121497724 23.087685953769096 63.88540385275769 H 0.0 **** 0.06
20596 C 5.852431846647903 39.68954858026191 52.119590249872644 C 0.0 **** -0.24
20597 H 5.453580497044612 39.211654583010386 51.22502752182722 H 0.0 **** 0.06
20598 H 6.448798878729377 38.96992748482785 52.680849936433106 H 0.0 **** 0.06
20599 H 5.028857605788602 40.04143357288791 52.74049037260506 H 0.0 **** 0.06
20600 H 6.477681527187457 40.53485233226044 51.8324823231399 H 0.0 **** 0.06
20601 C 78.74060863539 25.183297791051558 99.2584306941078 C 0.0 **** -0.24
20602 H 77.80696775852141 24.821996257333538 99.68919102773691 H 0.0 **** 0.06
20603 H 79.02884127662594 24.542234796955967 98.42499396357755 H 0.0 **** 0.06
20604 H 79.52175538455253 25.16525501483426 100.01855291808283 H 0.0 **** 0.06
20605 H 78.6047646344108 26.20466632370247 98.9012397601416 H 0.0 **** 0.06
20606 C 44.166814325091806 53.513683497242994 79.30002106825694 C 0.0 **** -0.24
20607 H 43.413350039825644 54.28554214753149 79.14019485741744 H 0.0 **** 0.06
20608 H 44.25161693165663 53.303704413519114 80.36606837034552 H 0.0 **** 0.06
20609 H 45.12700917000174 53.85931333165212 78.9183754379053 H 0.0 **** 0.06
20610 H 43.87231121645077 52.60539853158026 78.77330580335462 H 0.0 **** 0.06
20611 C 82.40751456202037 115.51509287574557 30.17175127887407 C 0.0 **** -0.24
20612 H 82.96778254819708 116.10679479252549 29.447917606379335 H 0.0 **** 0.06
20613 H 81.92128197488029 116.1810307051232 30.885839752567854 H 0.0 **** 0.06
20614 H 83.08834904046347 114.84869612525476 30.700651372826826 H 0.0 **** 0.06
20615 H 81.65230081585281 114.92597425093828 29.65198885136263 H 0.0 **** 0.06
20616 C 116.94187582430338 13.78068876940344 5.426949820839425 C 0.0 **** -0.24
20617 H 117.08640635539855 14.068530319396615 6.4676234763754366 H 0.0 **** 0.06
20618 H 117.79521960234077 14.115491297700885 4.836418461618891 H 0.0 **** 0.06
20619 H 116.03163448947025 14.243843923832998 5.044595729052929 H 0.0 **** 0.06
20620 H 116.85449849716277 12.69713393296928 5.358214155919697 H 0.0 **** 0.06
20621 C 116.61918339224988 44.34887622557565 49.81386343335353 C 0.0 **** -0.24
20622 H 115.69026268113916 44.91394148529554 49.90058844873542 H 0.0 **** 0.06
20623 H 116.89244200086247 43.94696196279364 50.789754438900786 H 0.0 **** 0.06
20624 H 117.41170134212854 45.00677062298789 49.45588035224536 H 0.0 **** 0.06
20625 H 116.4809086491743 43.52930119898818 49.10832217286193 H 0.0 **** 0.06
20626 C 20.251614449969566 1.882313547095407 18.11495637243455 C 0.0 **** -0.24
20627 H 21.231187093655336 1.7579815043728502 17.650463418138685 H 0.0 **** 0.06
20628 H 19.5563890735948 2.3008271429513343 17.3875475555797 H 0.0 **** 0.06
20629 H 20.33831809839532 2.5564828638053996 18.96738866404297 H 0.0 **** 0.06
20630 H 19.88510107713222 0.9130183421647473 18.453704586449078 H 0.0 **** 0.06
20631 C 20.341160329036754 7.186737085243337 22.441943869202966 C 0.0 **** -0.24
20632 H 20.376875599821787 6.22412925948921 21.93251858368436 H 0.0 **** 0.06
20633 H 19.31598391579647 7.398007077067707 22.74899107526125 H 0.0 **** 0.06
20634 H 20.685885642325317 7.968852387278837 21.765873863125424 H 0.0 **** 0.06
20635 H 20.985300841002292 7.156644414584743 23.321476743662238 H 0.0 **** 0.06
20636 C 49.14785130457433 25.095481979894572 69.25126000408065 C 0.0 **** -0.24
20637 H 48.46659379427447 24.26796720636355 69.4513677806793 H 0.0 **** 0.06
20638 H 49.4094164047705 25.101973261032242 68.19332848173647 H 0.0 **** 0.06
20639 H 50.05101430797808 24.97445017185173 69.84920184682466 H 0.0 **** 0.06
20640 H 48.662039317151056 26.036059447813756 69.5122970744452 H 0.0 **** 0.06
20641 C 94.39924792330652 82.31674897766362 16.87946811344753 C 0.0 **** -0.24
20642 H 93.84278692784596 83.15474105870058 17.2996204902569 H 0.0 **** 0.06
20643 H 93.7558827118645 81.75887947044669 16.197880642677774 H 0.0 **** 0.06
20644 H 94.73323629599889 81.66123646895872 17.683708552523285 H 0.0 **** 0.06
20645 H 95.26592907959838 82.69325587089116 16.33491877730063 H 0.0 **** 0.06
20646 C 100.73270963698343 107.01467073029431 65.98903459164995 C 0.0 **** -0.24
20647 H 100.68509224006584 106.50534409456807 65.0270005603013 H 0.0 **** 0.06
20648 H 101.53634955683341 107.75068187965022 65.97120140030455 H 0.0 **** 0.06
20649 H 100.92330269459333 106.28639782395962 66.77680447039063 H 0.0 **** 0.06
20650 H 99.78393730270082 107.51684441247224 66.18105356260429 H 0.0 **** 0.06
20651 C 45.96119123227234 116.05631512309347 42.33634495803928 C 0.0 **** -0.24
20652 H 45.864367372800515 115.36466315442371 41.499633389735095 H 0.0 **** 0.06
20653 H 45.52062660290514 117.01631791567787 42.06675447017473 H 0.0 **** 0.06
20654 H 47.016612405285315 116.19449321384981 42.5718179981769 H 0.0 **** 0.06
20655 H 45.444947062998494 115.6494388187761 43.20553663286128 H 0.0 **** 0.06
20656 C 41.10646767455998 53.168000753327014 93.75477736682234 C 0.0 **** -0.24
20657 H 42.05497361243684 53.3360429159238 94.26494291898442 H 0.0 **** 0.06
20658 H 41.13820004167209 53.633042939462285 92.76900688409029 H 0.0 **** 0.06
20659 H 40.29795167029849 53.60796862753272 94.33868379462098 H 0.0 **** 0.06
20660 H 40.93702843419126 52.09683961270562 93.64693627169558 H 0.0 **** 0.06
20661 C 116.69723061909121 112.5484014465937 14.523995901138733 C 0.0 **** -0.24
20662 H 117.76581839274013 112.76226590069928 14.51673579030171 H 0.0 **** 0.06
20663 H 116.3491931737334 112.4686579809873 15.554470820594162 H 0.0 **** 0.06
20664 H 116.51114583295725 111.60880395556646 14.003033693734736 H 0.0 **** 0.06
20665 H 116.16169726170932 113.35419762152013 14.020417496062635 H 0.0 **** 0.06
20666 C 33.79960137753807 17.736955055099507 91.74907535495791 C 0.0 **** -0.24
20667 H 33.29206671069319 18.63159518582993 92.1086224555435 H 0.0 **** 0.06
20668 H 33.533218835719836 17.56238971706761 90.70606484507377 H 0.0 **** 0.06
20669 H 33.495322431421705 16.879644184314685 92.35000463285604 H 0.0 **** 0.06
20670 H 34.87803620140681 17.87378718728313 91.83072635367776 H 0.0 **** 0.06
20671 C 17.049136693821282 71.80218573174415 72.04369659860407 C 0.0 **** -0.24
20672 H 17.01366659915493 72.06137205837479 73.10238208397061 H 0.0 **** 0.06
20673 H 18.035045809929528 71.40462173726485 71.80016276265616 H 0.0 **** 0.06
20674 H 16.85940223035641 72.69348228097712 71.44532724399079 H 0.0 **** 0.06
20675 H 16.289484371743043 71.05085309563606 71.82808772543154 H 0.0 **** 0.06
20676 C 12.836044272204532 105.72953716362511 20.92147653535507 C 0.0 **** -0.24
20677 H 12.128284315752751 104.91569622136618 20.762932058160715 H 0.0 **** 0.06
20678 H 12.35634996381566 106.51960184171506 21.49972801886726 H 0.0 **** 0.06
20679 H 13.156515939918307 106.12576341614988 19.958523177037975 H 0.0 **** 0.06
20680 H 13.702794474493714 105.35448019051375 21.465795310586913 H 0.0 **** 0.06
20681 C 10.653590390322506 98.20173863930927 2.0377474144383427 C 0.0 **** -0.24
20682 H 11.368905041691846 97.92587646319029 1.2625283384003865 H 0.0 **** 0.06
20683 H 10.611640266084294 97.41318545286657 2.7896840341770144 H 0.0 **** 0.06
20684 H 9.668272375711211 98.33270046023895 1.5919796505581871 H 0.0 **** 0.06
20685 H 10.968893291711595 99.13448242383316 2.505666956691215 H 0.0 **** 0.06
20686 C 39.58526484083387 79.79619007133289 60.0202549573153 C 0.0 **** -0.24
20687 H 39.671965838197934 79.16198085684414 60.90138608437039 H 0.0 **** 0.06
20688 H 40.1532530317283 80.71398847672265 60.17578673188646 H 0.0 **** 0.06
20689 H 38.53678296331623 80.0414639666817 59.85032246327992 H 0.0 **** 0.06
20690 H 39.97985998595908 79.26813762897422 59.15222105567341 H 0.0 **** 0.06
20691 C 112.92413584808662 84.56152250155367 89.60568465574016 C 0.0 **** -0.24
20692 H 112.01247531052846 84.02770411551404 89.8737826901864 H 0.0 **** 0.06
20693 H 113.75207969445395 84.1933706328847 90.21143439755826 H 0.0 **** 0.06
20694 H 112.78669649334512 85.62842363533895 89.78655219799415 H 0.0 **** 0.06
20695 H 113.14354114633348 84.39814286065032 88.55024208621964 H 0.0 **** 0.06
20696 C 44.0458841708563 52.235163671617556 103.51972499780564 C 0.0 **** -0.24
20697 H 44.86161432527287 52.89164244952195 103.21445366844745 H 0.0 **** 0.06
20698 H 43.90498643393663 52.310599846826904 104.59830917455682 H 0.0 **** 0.06
20699 H 44.28854383877155 51.20631170439083 103.25500165361515 H 0.0 **** 0.06
20700 H 43.1298052075305 52.53540935303863 103.01137333461585 H 0.0 **** 0.06
20701 C 103.28429932565848 26.530709636922438 93.5299164920653 C 0.0 **** -0.24
20702 H 104.07431743216628 27.257018365397244 93.33696406970779 H 0.0 **** 0.06
20703 H 102.55547532629194 26.96093776215099 94.21682398846428 H 0.0 **** 0.06
20704 H 103.7174047358746 25.634194924068538 93.97384853596992 H 0.0 **** 0.06
20705 H 102.7921890695153 26.271610739743494 92.59262528334949 H 0.0 **** 0.06
20706 C 32.45681377568651 80.67538031953887 102.93267820213231 C 0.0 **** -0.24
20707 H 32.13488588646226 80.65698569387263 103.97343205632421 H 0.0 **** 0.06
20708 H 31.839255447444287 79.99132922039723 102.34996093040218 H 0.0 **** 0.06
20709 H 33.500251038256096 80.36772613331684 102.86972498587357 H 0.0 **** 0.06
20710 H 32.352146208472476 81.68617760228963 102.53757674432592 H 0.0 **** 0.06
20711 C 82.95571262301323 105.34339197799761 110.39382012092484 C 0.0 **** -0.24
20712 H 82.25147359330342 106.05859343011537 110.8185857372288 H 0.0 **** 0.06
20713 H 83.4627096058274 104.8108423298321 111.19926942228926 H 0.0 **** 0.06
20714 H 83.69190294400929 105.87427829650676 109.78972730114137 H 0.0 **** 0.06
20715 H 82.41798846363469 104.63115028623167 109.76860413828183 H 0.0 **** 0.06
20716 C 94.18343932304157 86.20004607524146 23.52800008563574 C 0.0 **** -0.24
20717 H 94.80547680710993 85.8121053768148 24.333859799312876 H 0.0 **** 0.06
20718 H 93.59012332171466 85.38935474054372 23.104474074794467 H 0.0 **** 0.06
20719 H 94.81842551713024 86.62967911969398 22.75385637133101 H 0.0 **** 0.06
20720 H 93.51869701259344 86.9704145183843 23.92004312801106 H 0.0 **** 0.06
20721 C 44.62611948756398 32.106129723152 89.33724227705659 C 0.0 **** -0.24
20722 H 44.779264211721454 32.232691456477774 90.40916737392831 H 0.0 **** 0.06
20723 H 43.594274551200414 31.81144913405914 89.14943686887545 H 0.0 **** 0.06
20724 H 45.29969621773057 31.334392484738792 88.96311307446882 H 0.0 **** 0.06
20725 H 44.83415514773492 33.04770787837645 88.82799638949689 H 0.0 **** 0.06
20726 C 96.72807235015105 95.27757550961272 84.12540239481336 C 0.0 **** -0.24
20727 H 96.61469865296502 96.21816116769514 83.58646214905727 H 0.0 **** 0.06
20728 H 95.87144194336065 94.6358031360347 83.91979080038536 H 0.0 **** 0.06
20729 H 96.78431652059126 95.4769669378378 85.19556977673113 H 0.0 **** 0.06
20730 H 97.64175599812293 94.78036776212235 83.79980415576404 H 0.0 **** 0.06
20731 C 96.19487789908936 13.45604242781269 40.701025404936544 C 0.0 **** -0.24
20732 H 96.14126354074995 12.401331684580668 40.43069350985996 H 0.0 **** 0.06
20733 H 97.0944675971771 13.896328671765446 40.26965429828421 H 0.0 **** 0.06
20734 H 96.22717717967288 13.551489980224005 41.78597657519132 H 0.0 **** 0.06
20735 H 95.31573649188812 13.974096682672496 40.31714681028693 H 0.0 **** 0.06
20736 C 84.11137248463123 106.89173135867802 91.27568534646494 C 0.0 **** -0.24
20737 H 84.30023152526107 107.05127999660687 92.33729029448412 H 0.0 **** 0.06
20738 H 83.10224347833028 106.50266455506735 91.14159128855826 H 0.0 **** 0.06
20739 H 84.83319614306058 106.1753445799211 90.88236714508386 H 0.0 **** 0.06
20740 H 84.2100934514308 107.8377355312254 90.74244909616223 H 0.0 **** 0.06
20741 C 91.03988199312923 89.8176358430554 29.772368193584725 C 0.0 **** -0.24
20742 H 90.09175041698381 90.18143592069111 29.377581501946054 H 0.0 **** 0.06
20743 H 91.3025993527605 90.38529515585708 30.66575956306835 H 0.0 **** 0.06
20744 H 91.8186602573775 89.9443953293243 29.01964774186888 H 0.0 **** 0.06
20745 H 90.94688547622653 88.76210485930324 30.02520307730461 H 0.0 **** 0.06
20746 C 100.53906705191574 3.001189945059515 38.46332265884075 C 0.0 **** -0.24
20747 H 101.18227638747845 2.3013758402615583 37.92848004527764 H 0.0 **** 0.06
20748 H 99.60378905139171 3.1227101273980473 37.91789125882167 H 0.0 **** 0.06
20749 H 101.04203609777923 3.96508101044172 38.54479509150252 H 0.0 **** 0.06
20750 H 100.33223256646019 2.614358506089186 39.46115155271423 H 0.0 **** 0.06
20751 C 97.78926044010652 105.55326253671598 37.113522632312666 C 0.0 **** -0.24
20752 H 97.98056262169624 105.19791719198793 38.12586630288024 H 0.0 **** 0.06
20753 H 98.52246879601319 106.31619093129427 36.85123965355314 H 0.0 **** 0.06
20754 H 96.78715542021149 105.97857127995476 37.06002905218865 H 0.0 **** 0.06
20755 H 97.86739204860027 104.71937162933494 36.414784433909944 H 0.0 **** 0.06
20756 C 53.019120426684424 1.3614416067717343 53.95319742606128 C 0.0 **** -0.24
20757 H 52.038691985836955 1.337056256986557 53.47730142002703 H 0.0 **** 0.06
20758 H 53.70833028066274 0.7254764870544932 53.39727230787051 H 0.0 **** 0.06
20759 H 52.93479524200359 0.9982169810264168 54.97770351979176 H 0.0 **** 0.06
20760 H 53.39377454127513 2.3854729051122376 53.96053361764993 H 0.0 **** 0.06
20761 C 52.628661897984834 84.05075625334072 108.3504127045089 C 0.0 **** -0.24
20762 H 51.69674996844883 84.61065766998948 108.27030562672331 H 0.0 **** 0.06
20763 H 53.19949667126662 84.41743876464218 109.20393845598917 H 0.0 **** 0.06
20764 H 53.21109594073159 84.18288055918603 107.43946362256602 H 0.0 **** 0.06
20765 H 52.40565861035499 82.99275292426645 108.48961428718823 H 0.0 **** 0.06
20766 C 41.1059200449439 3.060621882034029 29.443942713945063 C 0.0 **** -0.24
20767 H 42.038132017556734 3.5146861916027117 29.781055533667114 H 0.0 **** 0.06
20768 H 41.215074193612566 2.733777650122496 28.41007920235117 H 0.0 **** 0.06
20769 H 40.30106874010113 3.7930065201238286 29.51160899961272 H 0.0 **** 0.06
20770 H 40.870693330716904 2.2035830173709527 30.075208395502557 H 0.0 **** 0.06
20771 C 62.774215906835686 97.08273053578876 102.35109396415368 C 0.0 **** -0.24
20772 H 63.16767268536517 96.1546598358689 101.93784943863687 H 0.0 **** 0.06
20773 H 63.01183525401097 97.90857963568868 101.67917879985552 H 0.0 **** 0.06
20774 H 63.2257986179114 97.2667199570069 103.32585163001337 H 0.0 **** 0.06
20775 H 61.69283424037108 97.00222402113994 102.46016248349184 H 0.0 **** 0.06
20776 C 78.42194233152969 105.23210751399137 110.25457544728008 C 0.0 **** -0.24
20777 H 79.3083394021132 105.28210245384889 109.62148749051192 H 0.0 **** 0.06
20778 H 78.4432702809714 106.0515143294831 110.97272106622447 H 0.0 **** 0.06
20779 H 78.41058425528203 104.28125166574216 110.78850034007914 H 0.0 **** 0.06
20780 H 77.52827322109286 105.31247732001799 109.63633217862738 H 0.0 **** 0.06
20781 C 72.15056976590154 61.03058424987418 83.69022470118887 C 0.0 **** -0.24
20782 H 71.72849129784097 61.353249154029925 84.64211582453405 H 0.0 **** 0.06
20783 H 73.15168277058538 61.4465231286361 83.57844747543461 H 0.0 **** 0.06
20784 H 71.51673917883653 61.380028003673175 82.87526003066662 H 0.0 **** 0.06
20785 H 72.20392306049214 59.94178236296574 83.66796512037604 H 0.0 **** 0.06
20786 C 83.9416288104714 92.31503657891659 77.13255802683449 C 0.0 **** -0.24
20787 H 84.39862954733294 92.5070809346447 78.10410985324827 H 0.0 **** 0.06
20788 H 83.18828017001229 91.5343017451969 77.2339457534755 H 0.0 **** 0.06
20789 H 84.7086947253288 91.99183829989283 76.42820912620337 H 0.0 **** 0.06
20790 H 83.4727897295044 93.22765508666612 76.76535929257307 H 0.0 **** 0.06
20791 C 95.66736948131523 89.32497178771752 115.7434956364772 C 0.0 **** -0.24
20792 H 95.7696062995208 88.35334717663986 116.22736116367963 H 0.0 **** 0.06
20793 H 95.06213514010338 89.21992179469697 114.84255917104036 H 0.0 **** 0.06
20794 H 96.65382992186571 89.70398216615493 115.47789922426844 H 0.0 **** 0.06
20795 H 95.1826415543157 90.02161676084208 116.42799635177656 H 0.0 **** 0.06
20796 C 52.057935433739885 76.5891321119249 74.06949455827913 C 0.0 **** -0.24
20797 H 52.198708936383284 77.56214508796373 74.54096691468303 H 0.0 **** 0.06
20798 H 52.412272894854084 75.80650579653198 74.74065818047026 H 0.0 **** 0.06
20799 H 52.62219094347881 76.55271109240712 73.13788693214354 H 0.0 **** 0.06
20800 H 50.999410851410744 76.43680966443014 73.85972772345195 H 0.0 **** 0.06
20801 C 56.40940240899024 3.203543769135548 72.20014088098236 C 0.0 **** -0.24
20802 H 56.489242753070904 4.286933401704086 72.10801042132016 H 0.0 **** 0.06
20803 H 57.21201398423755 2.7313317937259356 71.63327484526943 H 0.0 **** 0.06
20804 H 55.44554576802519 2.875365781963284 71.80894495772918 H 0.0 **** 0.06
20805 H 56.49033468487037 2.9213520432295184 73.24998104980216 H 0.0 **** 0.06
20806 C 55.46610092738547 87.4018983318216 44.90189670865658 C 0.0 **** -0.24
20807 H 54.858752721205974 86.59525638520924 44.49163766709867 H 0.0 **** 0.06
20808 H 55.9035329053699 87.97749036626567 44.08541969542176 H 0.0 **** 0.06
20809 H 56.26074828386277 86.98110642563049 45.518046303915696 H 0.0 **** 0.06
20810 H 54.840209460789424 88.05396586438326 45.51121713352643 H 0.0 **** 0.06
20811 C 15.799465863772856 60.178766379527126 70.48364721837785 C 0.0 **** -0.24
20812 H 15.5576658163859 61.18445737025137 70.14034281084568 H 0.0 **** 0.06
20813 H 14.884065057347733 59.66462534486683 70.77554599241563 H 0.0 **** 0.06
20814 H 16.47181574875208 60.23967675658974 71.34032406441588 H 0.0 **** 0.06
20815 H 16.286191368635833 59.62671522899132 69.67952447310418 H 0.0 **** 0.06
20816 C 113.13071332746017 79.49045191048472 17.173665650168203 C 0.0 **** -0.24
20817 H 112.68333309126113 78.79836712329202 16.46041315168432 H 0.0 **** 0.06
20818 H 112.68984128798249 80.47912964499034 17.04674542714426 H 0.0 **** 0.06
20819 H 114.20575269633821 79.54640714063248 16.999777772775786 H 0.0 **** 0.06
20820 H 112.94542869172929 79.13625391402809 18.18758129520768 H 0.0 **** 0.06
20821 C 85.77683068073605 22.46869865605331 46.21230510013129 C 0.0 **** -0.24
20822 H 86.69701801269483 22.99203499613926 45.95228793491671 H 0.0 **** 0.06
20823 H 86.00428284164863 21.428586299223532 46.44857495511994 H 0.0 **** 0.06
20824 H 85.08598068794339 22.507867230081086 45.36994965544713 H 0.0 **** 0.06
20825 H 85.31999747679242 22.946399426026716 47.07940256030096 H 0.0 **** 0.06
20826 C 95.75939705961406 56.120457219156044 87.94534628171044 C 0.0 **** -0.24
20827 H 96.38638837486386 56.05373389642036 88.83449725953707 H 0.0 **** 0.06
20828 H 94.86071617196654 56.692323647048546 88.17770818079109 H 0.0 **** 0.06
20829 H 95.47858377365671 55.11816801621172 87.62296486413857 H 0.0 **** 0.06
20830 H 96.31146167309413 56.61765741994494 87.14816552699858 H 0.0 **** 0.06
20831 C 111.61986436169376 15.211055473742078 77.21849289750062 C 0.0 **** -0.24
20832 H 111.18956425311524 15.100396317133999 76.22355526623218 H 0.0 **** 0.06
20833 H 110.81830516675791 15.29043008047941 77.95399693917017 H 0.0 **** 0.06
20834 H 112.23346780521814 16.111718768592652 77.25061842782958 H 0.0 **** 0.06
20835 H 112.23796827742817 14.342366811746928 77.4465085986125 H 0.0 **** 0.06
20836 C 92.7427920807076 14.17035157804628 57.11309529293305 C 0.0 **** -0.24
20837 H 92.9738798314473 13.512611932481889 57.9506515868224 H 0.0 **** 0.06
20838 H 91.72424338084542 14.545893986890263 57.21782873012182 H 0.0 **** 0.06
20839 H 92.83195103279391 13.61549980522625 56.18012549075769 H 0.0 **** 0.06
20840 H 93.43963649386987 15.00834987544124 57.106219710332425 H 0.0 **** 0.06
20841 C 58.1960991218028 105.0985620437396 114.94165116607748 C 0.0 **** -0.24
20842 H 57.46163263999276 104.67701308860183 114.25550101806863 H 0.0 **** 0.06
20843 H 59.19640858598481 104.96652398820902 114.52880552913525 H 0.0 **** 0.06
20844 H 58.129282846948485 104.58813695398112 115.90276532143604 H 0.0 **** 0.06
20845 H 57.996205769924046 106.16053324062653 115.07982250774158 H 0.0 **** 0.06
20846 C 60.42093595922009 42.06250807461515 79.85056289821651 C 0.0 **** -0.24
20847 H 61.44426540328698 41.6885943296799 79.88380339277884 H 0.0 **** 0.06
20848 H 60.428109441595694 43.147858407520715 79.94955153193854 H 0.0 **** 0.06
20849 H 59.84810156341925 41.62643227556538 80.66810136082469 H 0.0 **** 0.06
20850 H 59.96492162696913 41.78748617063627 78.8990207268011 H 0.0 **** 0.06
20851 C 95.06183657246322 85.56065254174516 3.7988238190592085 C 0.0 **** -0.24
20852 H 94.18738025319084 85.14163058380043 4.297435249344147 H 0.0 **** 0.06
20853 H 95.17644474089371 85.09945705386721 2.818308031909339 H 0.0 **** 0.06
20854 H 95.95030757645358 85.3664573766248 4.399016318614912 H 0.0 **** 0.06
20855 H 94.93146551957088 86.63717323213581 3.6812429720376656 H 0.0 **** 0.06
20856 C 6.627046557966068 84.4981482679026 4.602784918563941 C 0.0 **** -0.24
20857 H 6.276966524883051 83.51437926004928 4.9153006369307946 H 0.0 **** 0.06
20858 H 6.070856183905292 84.81819115681935 3.7214595472523797 H 0.0 **** 0.06
20859 H 7.689288095979023 84.44678220725211 4.364189022791152 H 0.0 **** 0.06
20860 H 6.469857728555567 85.21274729749246 5.410714041974984 H 0.0 **** 0.06
20861 C 69.66131140062174 65.42337965680983 8.077000311385206 C 0.0 **** -0.24
20862 H 68.75887454793028 64.85201654841194 7.860770190281727 H 0.0 **** 0.06
20863 H 70.51999727529162 64.75233959202083 8.09723310603971 H 0.0 **** 0.06
20864 H 69.5587954928867 65.9112046534672 9.046708449092108 H 0.0 **** 0.06
20865 H 69.80686441909515 66.1784396952641 7.303797694130878 H 0.0 **** 0.06
20866 C 82.78167221572787 28.033358462352027 74.37688772055054 C 0.0 **** -0.24
20867 H 83.55965761866645 28.631509119865 74.8502955973326 H 0.0 **** 0.06
20868 H 82.36772312324152 27.33329385401771 75.1033843336985 H 0.0 **** 0.06
20869 H 83.20653909873064 27.480118741615797 73.54017425179649 H 0.0 **** 0.06
20870 H 81.99057783440247 28.68960022235396 74.01357377417622 H 0.0 **** 0.06
20871 C 34.42298102937963 18.784465254423594 20.544856978793632 C 0.0 **** -0.24
20872 H 34.45320231575653 19.475626565153902 21.388045790633413 H 0.0 **** 0.06
20873 H 35.06691763061531 17.92935438283513 20.752959556727035 H 0.0 **** 0.06
20874 H 34.772371971530106 19.293527296782884 19.646067553661766 H 0.0 **** 0.06
20875 H 33.39993450424009 18.441042412863965 20.39373091375768 H 0.0 **** 0.06
20876 C 36.16190751245179 48.11345984292717 69.7312772870518 C 0.0 **** -0.24
20877 H 35.673383911304825 47.86342591470574 70.67373703219485 H 0.0 **** 0.06
20878 H 37.150923539787755 47.657162908575714 69.70190173477587 H 0.0 **** 0.06
20879 H 36.25695449838588 49.19599905410635 69.64848551790311 H 0.0 **** 0.06
20880 H 35.56267000269267 47.73758038202965 68.90145040233935 H 0.0 **** 0.06
20881 C 47.6739512272311 83.36073310528437 83.2435961177502 C 0.0 **** -0.24
20882 H 47.73473756771551 84.40503274002918 83.5521328933643 H 0.0 **** 0.06
20883 H 47.10688311764653 83.28935852197361 82.3159248686811 H 0.0 **** 0.06
20884 H 47.1750983455359 82.7819983642481 84.02109112220072 H 0.0 **** 0.06
20885 H 48.67900992773366 82.97002960062326 83.08743499867629 H 0.0 **** 0.06
20886 C 0.516878110460711 11.286733562640364 29.46988489517338 C 0.0 **** -0.24
20887 H 1.1163397489690645 12.029224299882074 29.996371174768967 H 0.0 **** 0.06
20888 H 0.5548092924424193 11.481616334094355 28.398718976825705 H 0.0 **** 0.06
20889 H -0.5161247264667956 11.344250816632552 29.814325788022188 H 0.0 **** 0.06
20890 H 0.9122873140042973 10.290931102506732 29.672388333837034 H 0.0 **** 0.06
20891 C 75.60265640119141 68.82418576986706 21.57102410263109 C 0.0 **** -0.24
20892 H 75.51436832301567 68.8143150150558 22.65749470272128 H 0.0 **** 0.06
20893 H 75.66151375267978 69.85503936856603 21.22065246395613 H 0.0 **** 0.06
20894 H 74.73132135590086 68.33933706916918 21.131101916540068 H 0.0 **** 0.06
20895 H 76.5046882930061 68.28745718192411 21.27463829833625 H 0.0 **** 0.06
20896 C 98.65923640999034 69.24410087315582 7.662873553646875 C 0.0 **** -0.24
20897 H 99.21439860860923 70.15750840111292 7.874027838195275 H 0.0 **** 0.06
20898 H 98.6435295448421 69.06925928180013 6.587007719391465 H 0.0 **** 0.06
20899 H 97.63763145116158 69.34718185822254 8.029834366544549 H 0.0 **** 0.06
20900 H 99.14142699668952 68.40312922207818 8.16136076201468 H 0.0 **** 0.06
20901 C 19.318466836822893 103.34584145166622 106.59918059663454 C 0.0 **** -0.24
20902 H 20.104344426510863 102.63239063463294 106.35138852676084 H 0.0 **** 0.06
20903 H 19.278497083337072 103.47931502496971 107.68064758404262 H 0.0 **** 0.06
20904 H 18.35990552268214 102.96822182274639 106.24318593939978 H 0.0 **** 0.06
20905 H 19.53251918017486 104.30195227640235 106.12241419077918 H 0.0 **** 0.06
20906 C 109.96465245632376 102.35817972972558 115.21588021511508 C 0.0 **** -0.24
20907 H 110.97459036971085 101.95241171560713 115.153100233868 H 0.0 **** 0.06
20908 H 109.80747562880313 102.78840748903303 116.20577626140744 H 0.0 **** 0.06
20909 H 109.24122009068876 101.56083762246496 115.04597512928463 H 0.0 **** 0.06
20910 H 109.83707871751707 103.13269079585302 114.45918664738753 H 0.0 **** 0.06
20911 C 90.95038111837326 3.632062858588476 116.26406256901865 C 0.0 **** -0.24
20912 H 91.87952611225361 4.202382319188029 116.28494116110392 H 0.0 **** 0.06
20913 H 90.14689375290018 4.232591305685721 116.69005222033633 H 0.0 **** 0.06
20914 H 91.07124686977153 2.719144828834649 116.84709575993415 H 0.0 **** 0.06
20915 H 90.70546593096884 3.375897512657909 115.2336129601588 H 0.0 **** 0.06
20916 C 60.33645710516016 20.26083686584593 97.26287936917691 C 0.0 **** -0.24
20917 H 59.76305765141429 20.747733704745485 98.05269656038453 H 0.0 **** 0.06
20918 H 59.92077420866524 19.2718404966123 97.06978745949269 H 0.0 **** 0.06
20919 H 61.3756078603483 20.162939423417015 97.57741455402714 H 0.0 **** 0.06
20920 H 60.286737853528045 20.861325771428938 96.35472320298965 H 0.0 **** 0.06
20921 C 17.02863487255732 80.84253934288046 75.65422516347286 C 0.0 **** -0.24
20922 H 16.619304403619566 81.79397002826576 75.99393944301741 H 0.0 **** 0.06
20923 H 17.30819345501132 80.23786221042351 76.5172710283606 H 0.0 **** 0.06
20924 H 17.90903758180707 81.0259494338735 75.03789699850984 H 0.0 **** 0.06
20925 H 16.27759534016448 80.31357724635527 75.06661444910097 H 0.0 **** 0.06
20926 C 23.83970972193356 11.23725460645862 95.89102532256243 C 0.0 **** -0.24
20927 H 23.415747862450075 11.912827444469926 96.63364044709829 H 0.0 **** 0.06
20928 H 24.554094298807684 10.56933729815512 96.37475029834854 H 0.0 **** 0.06
20929 H 24.34871197655957 11.817235960842254 95.12114162532885 H 0.0 **** 0.06
20930 H 23.042574284817817 10.649185245113259 95.43617249729533 H 0.0 **** 0.06
20931 C 37.414935346810985 73.20056030761592 82.71969114788908 C 0.0 **** -0.24
20932 H 37.999602173567766 72.28056709495334 82.73002424347294 H 0.0 **** 0.06
20933 H 38.053664549695185 74.03874297780334 83.00203404459785 H 0.0 **** 0.06
20934 H 36.59115385522312 73.11543217632632 83.42879329773928 H 0.0 **** 0.06
20935 H 37.01746692894974 73.36752417437191 81.71854056150153 H 0.0 **** 0.06
20936 C 29.802002984733463 49.551424090775214 18.80415917668721 C 0.0 **** -0.24
20937 H 29.12001083594616 50.226851932303276 19.321872979652472 H 0.0 **** 0.06
20938 H 29.398157455765656 49.31215385432038 17.820034613818542 H 0.0 **** 0.06
20939 H 29.915872952420543 48.63623142619835 19.384357877177116 H 0.0 **** 0.06
20940 H 30.77300710363366 50.03370214910584 18.691618317464325 H 0.0 **** 0.06
20941 C 25.03490249433502 98.68074453475381 27.081008615323583 C 0.0 **** -0.24
20942 H 25.97929870447232 99.00073992207498 26.64220883765711 H 0.0 **** 0.06
20943 H 24.270602077866542 98.63227481008397 26.3042755666566 H 0.0 **** 0.06
20944 H 24.730646047016542 99.39352596733923 27.847500112317164 H 0.0 **** 0.06
20945 H 25.158870693050815 97.69507297398798 27.530368240178404 H 0.0 **** 0.06
20946 C 25.994622779348127 112.7769474784119 10.071601756819717 C 0.0 **** -0.24
20947 H 26.107007670794673 113.86065251424937 10.030205630971608 H 0.0 **** 0.06
20948 H 25.105843715903866 112.52621976980987 10.649794547346232 H 0.0 **** 0.06
20949 H 26.87271193938676 112.33867863865834 10.545317269150473 H 0.0 **** 0.06
20950 H 25.893871494976935 112.38504550025674 9.058801841057857 H 0.0 **** 0.06
20951 C 115.81062429276453 26.580692448791638 113.43594668606755 C 0.0 **** -0.24
20952 H 114.88293631843007 26.13194298741351 113.7924120670138 H 0.0 **** 0.06
20953 H 115.7673136031886 27.661762551661468 113.57382443511331 H 0.0 **** 0.06
20954 H 115.93961893622493 26.35468901899148 112.37785153302688 H 0.0 **** 0.06
20955 H 116.65075674959219 26.175052485204418 113.99950168412846 H 0.0 **** 0.06
20956 C 15.185603589101703 32.45852308635403 25.565330307403435 C 0.0 **** -0.24
20957 H 15.159769928841555 32.05009867755827 26.575179625361855 H 0.0 **** 0.06
20958 H 14.58969419890563 33.3696832168234 25.52704574804762 H 0.0 **** 0.06
20959 H 14.77745295489871 31.727009800821754 24.867771741480233 H 0.0 **** 0.06
20960 H 16.216438394995304 32.68530059521734 25.291662291644144 H 0.0 **** 0.06
20961 C 27.74162703084965 95.56914834310822 91.27759520674081 C 0.0 **** -0.24
20962 H 27.386885625985272 94.57872110093976 91.56384513147904 H 0.0 **** 0.06
20963 H 28.831721387502746 95.584639624609 91.30050676936239 H 0.0 **** 0.06
20964 H 27.35170580854721 96.30973578178305 91.97475384271758 H 0.0 **** 0.06
20965 H 27.39540973078814 95.80102272274348 90.26946895936419 H 0.0 **** 0.06
20966 C 106.70316053675603 46.158731720071984 72.83494976482336 C 0.0 **** -0.24
20967 H 106.6101116177723 46.84610583605108 73.67613186713118 H 0.0 **** 0.06
20968 H 107.50524545060568 46.49411132084195 72.17839831065325 H 0.0 **** 0.06
20969 H 105.76539790573673 46.13407314836879 72.280581902546 H 0.0 **** 0.06
20970 H 106.93120498252375 45.159618748468255 73.20680806281933 H 0.0 **** 0.06
20971 C 98.158101839728 3.5671820708538604 96.12171619587892 C 0.0 **** -0.24
20972 H 98.35913321487368 2.5198915218249027 95.89834340389672 H 0.0 **** 0.06
20973 H 97.17643215730419 3.6580421290618688 96.5868351734158 H 0.0 **** 0.06
20974 H 98.17697048138822 4.146211340808421 95.19782350032798 H 0.0 **** 0.06
20975 H 98.9194963694969 3.945971125518355 96.80289659712432 H 0.0 **** 0.06
20976 C 106.1745962432405 50.12994204706777 103.98502044786451 C 0.0 **** -0.24
20977 H 107.22204699098202 50.06772534494692 103.69113859989162 H 0.0 **** 0.06
20978 H 105.72791893413742 51.02247407058391 103.54683151582734 H 0.0 **** 0.06
20979 H 106.1050339004641 50.18416512717758 105.0711523320036 H 0.0 **** 0.06
20980 H 105.64516715676217 49.24630535721812 103.63085167349695 H 0.0 **** 0.06
20981 C 37.71935679826089 1.6132577470024074 30.83315346857455 C 0.0 **** -0.24
20982 H 38.61589356222481 1.8891898848931419 30.277377527732654 H 0.0 **** 0.06
20983 H 37.290712710894525 0.707189688618854 30.40436504097852 H 0.0 **** 0.06
20984 H 36.992579071255136 2.4232968998433932 30.774867484442893 H 0.0 **** 0.06
20985 H 37.98059969630947 1.4333831505788055 31.876667210803646 H 0.0 **** 0.06
20986 C 29.581524067512476 109.46904093405664 90.293879499908 C 0.0 **** -0.24
20987 H 30.358685908762595 108.87076812067849 90.76970162538686 H 0.0 **** 0.06
20988 H 29.319223805069612 110.30429169639898 90.94259766476975 H 0.0 **** 0.06
20989 H 28.700918758635567 108.84980496411904 90.1222179451799 H 0.0 **** 0.06
20990 H 29.94885658008701 109.84976479145301 89.34065089994434 H 0.0 **** 0.06
20991 C 7.020507393236343 85.345327765598 13.821076342925494 C 0.0 **** -0.24
20992 H 7.850912166999535 84.64342338311928 13.89846966531869 H 0.0 **** 0.06
20993 H 7.3110579614638596 86.18198209242439 13.184698664873643 H 0.0 **** 0.06
20994 H 6.764907144964042 85.71512353170843 14.81400190236721 H 0.0 **** 0.06
20995 H 6.157545457229077 84.84123164383138 13.38686864800055 H 0.0 **** 0.06
20996 C 75.11775137062511 2.362861907688284 82.22124116895927 C 0.0 **** -0.24
20997 H 74.3375199237056 1.8369994739375244 82.77082111221495 H 0.0 **** 0.06
20998 H 75.75441231513554 1.6397413677790098 81.71184439467802 H 0.0 **** 0.06
20999 H 75.71810628362633 2.9497962482129907 82.91680400872178 H 0.0 **** 0.06
21000 H 74.66101426413167 3.026043387008059 81.48680458663134 H 0.0 **** 0.06
21001 C 41.52751402302378 30.980164461723632 9.42788847151835 C 0.0 **** -0.24
21002 H 41.92684479749224 31.991787222459322 9.509067100544293 H 0.0 **** 0.06
21003 H 41.345134214091466 30.745361174886142 8.37905406548768 H 0.0 **** 0.06
21004 H 40.59225655248275 30.913404520303004 9.983463063346601 H 0.0 **** 0.06
21005 H 42.24690309212269 30.27223185762074 9.839417767194675 H 0.0 **** 0.06
21006 C 111.66900289879638 54.99123938208578 0.19467156858299717 C 0.0 **** -0.24
21007 H 111.77916579486174 54.0878622208981 0.7943284649311391 H 0.0 **** 0.06
21008 H 111.52009912904832 54.716635041744325 -0.8502421935343136 H 0.0 **** 0.06
21009 H 112.56909889387777 55.60001956578924 0.28527790990970203 H 0.0 **** 0.06
21010 H 110.80933225195963 55.55967225256336 0.5477182272355314 H 0.0 **** 0.06
21011 C 35.45473200096697 50.50288851173809 115.95315853992196 C 0.0 **** -0.24
21012 H 36.18054206495563 51.13500688050249 116.46376272013455 H 0.0 **** 0.06
21013 H 34.579977434264265 51.09595507827282 115.68592254171142 H 0.0 **** 0.06
21014 H 35.15449975364797 49.68888500912033 116.61387976280449 H 0.0 **** 0.06
21015 H 35.90364434784492 50.08967688290602 115.04996840549407 H 0.0 **** 0.06
21016 C 101.28759625536611 40.55102329252975 11.361538034281992 C 0.0 **** -0.24
21017 H 100.65143291267728 39.67878426796207 11.512855158816834 H 0.0 **** 0.06
21018 H 101.98138803008433 40.643094561896646 12.198005909278166 H 0.0 **** 0.06
21019 H 100.6691717354793 41.446624424223046 11.303157498925657 H 0.0 **** 0.06
21020 H 101.84872137140718 40.435347001612996 10.434548748027623 H 0.0 **** 0.06
21021 C 21.759151616203212 46.79044091025425 25.108705843166206 C 0.0 **** -0.24
21022 H 21.305419190399505 46.222816374502344 24.296217783214786 H 0.0 **** 0.06
21023 H 21.87492227062836 47.83107601070323 24.80378227440559 H 0.0 **** 0.06
21024 H 22.735250642005383 46.36908587111236 25.344056754212147 H 0.0 **** 0.06
21025 H 21.118393627421426 46.73933847016106 25.98856961964117 H 0.0 **** 0.06
21026 C 87.76983712177898 86.91226283616379 20.63557412728656 C 0.0 **** -0.24
21027 H 87.57530833030839 86.37789364813551 19.706217021275762 H 0.0 **** 0.06
21028 H 88.56506325739517 86.40765275421981 21.184827859532646 H 0.0 **** 0.06
21029 H 86.863770543186 86.92994387634505 21.242018156283194 H 0.0 **** 0.06
21030 H 88.07617343736558 87.9336906160182 20.40945262818599 H 0.0 **** 0.06
21031 C 11.812898968226783 20.82581133160214 61.86402385276432 C 0.0 **** -0.24
21032 H 11.476566910187053 21.447786616797956 61.034866434783055 H 0.0 **** 0.06
21033 H 12.854258560563249 20.54178548854449 61.70461798662171 H 0.0 **** 0.06
21034 H 11.196415291531071 19.92848295022982 61.91856034259749 H 0.0 **** 0.06
21035 H 11.726778038768767 21.383942685595215 62.795486710609055 H 0.0 **** 0.06
21036 C 82.25611835458918 52.677608162703564 39.118656233497745 C 0.0 **** -0.24
21037 H 82.5697870251029 53.35172478280987 39.91543555805015 H 0.0 **** 0.06
21038 H 82.70314095378737 52.99580799219339 38.17644432689781 H 0.0 **** 0.06
21039 H 81.16915870151553 52.69938071104718 39.03169462807682 H 0.0 **** 0.06
21040 H 82.58110535134 51.66411117880793 39.35113808419885 H 0.0 **** 0.06
21041 C 76.74132873410497 14.672800986293197 53.11920623551623 C 0.0 **** -0.24
21042 H 77.77213815004757 14.331490700128 53.21773463137205 H 0.0 **** 0.06
21043 H 76.08040069024531 13.988337835638333 53.6513715384518 H 0.0 **** 0.06
21044 H 76.46623815005012 14.700244203754522 52.06551390508179 H 0.0 **** 0.06
21045 H 76.64862242814962 15.671787901794033 53.545072696638556 H 0.0 **** 0.06
21046 C 107.58949839197905 23.55931137956111 73.24763542928599 C 0.0 **** -0.24
21047 H 108.28399112030439 23.890383073917803 72.47597753184579 H 0.0 **** 0.06
21048 H 107.89013825496545 22.57579012469222 73.60934278101593 H 0.0 **** 0.06
21049 H 106.58400226723884 23.50108399682722 72.82933080375352 H 0.0 **** 0.06
21050 H 107.59863943513986 24.26912862974484 74.07394977680337 H 0.0 **** 0.06
21051 C 113.09373620464235 11.900440702982877 109.26810938504289 C 0.0 **** -0.24
21052 H 113.00234792045802 12.586591195378048 108.42575774342802 H 0.0 **** 0.06
21053 H 114.00738731543966 11.316029914045373 109.16317035451502 H 0.0 **** 0.06
21054 H 112.23349971981557 11.231131655754979 109.28603061299629 H 0.0 **** 0.06
21055 H 113.1309383252556 12.469496347134708 110.19703631755863 H 0.0 **** 0.06
21056 C 11.948386870725052 60.05757495182254 59.4021748542953 C 0.0 **** -0.24
21057 H 13.025000448184656 60.158383701720346 59.54148172049428 H 0.0 **** 0.06
21058 H 11.723500889591215 60.01354957790286 58.33624255460004 H 0.0 **** 0.06
21059 H 11.442452125856292 60.91456176348317 59.845578895150545 H 0.0 **** 0.06
21060 H 11.60346746720829 59.14287434585737 59.88385623243395 H 0.0 **** 0.06
21061 C 8.296667417954552 26.344777148653634 94.33627381707132 C 0.0 **** -0.24
21062 H 7.882600669349472 26.909537507221643 95.17111691091401 H 0.0 **** 0.06
21063 H 7.530879339056071 25.68244109447687 93.93168120649196 H 0.0 **** 0.06
21064 H 9.144013283422737 25.75377438358629 94.68204716938209 H 0.0 **** 0.06
21065 H 8.627118493517287 27.034253869269804 93.55927090862235 H 0.0 **** 0.06
21066 C 14.291597696711648 27.178825854309622 107.62006217782437 C 0.0 **** -0.24
21067 H 13.638828909611107 26.845239298543504 108.42716101328946 H 0.0 **** 0.06
21068 H 14.897209102515461 26.341091200510846 107.27454946474009 H 0.0 **** 0.06
21069 H 14.943447811804702 27.97230248992051 107.98492625979043 H 0.0 **** 0.06
21070 H 13.687020096946924 27.554819803403575 106.79574795106359 H 0.0 **** 0.06
21071 C 27.016850293421754 115.3553276826811 30.60038739599429 C 0.0 **** -0.24
21072 H 27.74193227368434 115.46828420001759 29.79421834771 H 0.0 **** 0.06
21073 H 26.049688669356954 115.74076384458 30.27631799161537 H 0.0 **** 0.06
21074 H 27.355611422145557 115.9114837146788 31.474416530920678 H 0.0 **** 0.06
21075 H 26.920638067415354 114.29991247294096 30.856767110227736 H 0.0 **** 0.06
21076 C 62.85389257801865 42.17521091680652 83.51459377240883 C 0.0 **** -0.24
21077 H 63.89832268786939 42.474128730185214 83.60587619169729 H 0.0 **** 0.06
21078 H 62.43182652055204 42.02442678140011 84.50901775321975 H 0.0 **** 0.06
21079 H 62.78935687382148 41.24727988673857 82.94667415211666 H 0.0 **** 0.06
21080 H 62.296987233094065 42.956800693998275 82.9977742413 H 0.0 **** 0.06
21081 C 26.143620707446523 32.42659528655389 4.947592276595637 C 0.0 **** -0.24
21082 H 26.081543066409786 33.08487369133388 5.814632371805013 H 0.0 **** 0.06
21083 H 25.2000813268971 32.45167113166042 4.403284318026396 H 0.0 **** 0.06
21084 H 26.345755690134375 31.407799376311175 5.279042037595627 H 0.0 **** 0.06
21085 H 26.949802952644802 32.76182322378969 4.2947002376261665 H 0.0 **** 0.06
21086 C 109.19988026585222 89.49000369481962 9.236453698943649 C 0.0 **** -0.24
21087 H 108.44079361281607 89.26780566493449 9.986405065764501 H 0.0 **** 0.06
21088 H 108.83283795622589 90.26717348216482 8.565985473081469 H 0.0 **** 0.06
21089 H 109.41841790349834 88.58865110209462 8.663419318873053 H 0.0 **** 0.06
21090 H 110.10815148426879 89.83515337388076 9.73015365416768 H 0.0 **** 0.06
21091 C 45.45940441536014 78.81879572911654 44.39029513066069 C 0.0 **** -0.24
21092 H 44.387259585992155 79.00880349227074 44.367470410524106 H 0.0 **** 0.06
21093 H 45.99354161886909 79.76061351312185 44.515224185389826 H 0.0 **** 0.06
21094 H 45.765601039795655 78.34941173725156 43.45444419726894 H 0.0 **** 0.06
21095 H 45.693037591250345 78.15445269937322 45.22260485710706 H 0.0 **** 0.06
21096 C 42.25349425360906 79.29825333731785 41.04886932174515 C 0.0 **** -0.24
21097 H 43.21040754368744 79.67987207981346 40.69281362493494 H 0.0 **** 0.06
21098 H 42.31668073929205 79.10348079597122 42.12003960070914 H 0.0 **** 0.06
21099 H 42.01345975994744 78.37346817682482 40.52510757874035 H 0.0 **** 0.06
21100 H 41.474868193473924 80.03656703252881 40.858404395228476 H 0.0 **** 0.06
21101 C 12.533523643700278 44.72664652727161 71.2202721163327 C 0.0 **** -0.24
21102 H 13.5168600726881 45.188267567716764 71.30485343067193 H 0.0 **** 0.06
21103 H 12.077141217894066 45.01779366754573 70.27375954787416 H 0.0 **** 0.06
21104 H 11.903839960304751 45.060033134462685 72.04537721168921 H 0.0 **** 0.06
21105 H 12.63623828932672 43.64252291274323 71.2557291658942 H 0.0 **** 0.06
21106 C 8.329391608854507 17.48949397808076 67.6230963109657 C 0.0 **** -0.24
21107 H 8.058403785805424 18.528963314216867 67.43733386078765 H 0.0 **** 0.06
21108 H 8.57616429093568 17.00473230180316 66.67857742592531 H 0.0 **** 0.06
21109 H 7.489296593188669 16.973960190068226 68.08910584118865 H 0.0 **** 0.06
21110 H 9.19229804909773 17.452053960084555 68.28752181669137 H 0.0 **** 0.06
21111 C 21.31051347483725 5.709270214779423 18.252888012081563 C 0.0 **** -0.24
21112 H 20.56636330728695 5.800275276102639 17.461160014987094 H 0.0 **** 0.06
21113 H 22.227609163926985 6.214456814554239 17.949596773967865 H 0.0 **** 0.06
21114 H 21.51895933291044 4.655235021660161 18.434774435934504 H 0.0 **** 0.06
21115 H 20.927659414921592 6.166753729668812 19.164368175020655 H 0.0 **** 0.06
21116 C 93.02193299811643 10.367416420148714 93.37500492684109 C 0.0 **** -0.24
21117 H 93.57625941935359 9.443104224704769 93.54138047822099 H 0.0 **** 0.06
21118 H 91.95682053798694 10.143801575435077 93.3013875222762 H 0.0 **** 0.06
21119 H 93.36121647232443 10.832007418928043 92.44952750411969 H 0.0 **** 0.06
21120 H 93.19395035313252 11.048501156116743 94.20854088274334 H 0.0 **** 0.06
21121 C 5.38505354003388 19.07014239900849 21.076087755232493 C 0.0 **** -0.24
21122 H 5.402003203924693 19.427461840435626 22.10585040307285 H 0.0 **** 0.06
21123 H 5.352739511785444 19.921704790146634 20.39576950511656 H 0.0 **** 0.06
21124 H 4.504311875783742 18.44681412035891 20.921690391437608 H 0.0 **** 0.06
21125 H 6.28294881211076 18.4837165686684 20.880845847293926 H 0.0 **** 0.06
21126 C 40.53442488065002 34.139597767813356 1.9761129391297914 C 0.0 **** -0.24
21127 H 41.2368882051436 33.3215302634936 2.1346386114162783 H 0.0 **** 0.06
21128 H 39.664508373681656 34.00238651835718 2.6192209981968517 H 0.0 **** 0.06
21129 H 40.217181479343594 34.14760499809867 0.9326743170797727 H 0.0 **** 0.06
21130 H 41.018620598532664 35.08576181103057 2.2157911017885112 H 0.0 **** 0.06
21131 C 54.43734114678426 37.29999286695092 2.758431761247774 C 0.0 **** -0.24
21132 H 55.47773418136268 37.49800106772519 2.4987902582739245 H 0.0 **** 0.06
21133 H 53.85480286251112 38.214772946878405 2.6449188635893286 H 0.0 **** 0.06
21134 H 54.379659970328646 36.957612861188586 3.7911366174343204 H 0.0 **** 0.06
21135 H 54.03864742762045 36.5310223526508 2.0975609929259402 H 0.0 **** 0.06
21136 C 116.42749858478389 58.73175471171058 95.1602959546413 C 0.0 **** -0.24
21137 H 115.40494757699895 58.81253630362937 95.52913649555643 H 0.0 **** 0.06
21138 H 116.43319012706739 58.166762339929704 94.22827729389161 H 0.0 **** 0.06
21139 H 117.0408992075141 58.219413322029965 95.90126122171029 H 0.0 **** 0.06
21140 H 116.82929880976735 59.72936984314799 94.98356682056152 H 0.0 **** 0.06
21141 C 37.69541599931091 3.9309801928795878 112.44275297724832 C 0.0 **** -0.24
21142 H 38.306306539243394 4.378247187635111 111.65761818326078 H 0.0 **** 0.06
21143 H 37.95441524742327 2.877706341876319 112.54807211911071 H 0.0 **** 0.06
21144 H 36.64195884793068 4.021656254027221 112.17775966037743 H 0.0 **** 0.06
21145 H 37.879528639944255 4.446849098436417 113.38466131927234 H 0.0 **** 0.06
21146 C 15.441922468211487 101.58573056761165 98.26309885418405 C 0.0 **** -0.24
21147 H 15.7019394642995 102.39981970325434 97.58663628954358 H 0.0 **** 0.06
21148 H 14.411317049541282 101.70851309042396 98.59788470023315 H 0.0 **** 0.06
21149 H 16.10870740767399 101.60263825197558 99.12423731403211 H 0.0 **** 0.06
21150 H 15.544040592554751 100.63398285204283 97.742211425887 H 0.0 **** 0.06
21151 C 72.10129609595299 115.22671832899513 4.6225703339071345 C 0.0 **** -0.24
21152 H 71.09601094952009 114.90216916446 4.8926836982407735 H 0.0 **** 0.06
21153 H 72.59797919963535 114.43722586904616 4.057233083204935 H 0.0 **** 0.06
21154 H 72.66929351709197 115.43935817776384 5.528120873211776 H 0.0 **** 0.06
21155 H 72.04050292299684 116.12822666413878 4.012430583490072 H 0.0 **** 0.06
21156 C 3.0579853194107898 0.3606544321570766 113.72354671915352 C 0.0 **** -0.24
21157 H 3.934448354877844 0.14942571247205194 114.3374543974597 H 0.0 **** 0.06
21158 H 3.026798195654038 1.4251563530116726 113.49060550259868 H 0.0 **** 0.06
21159 H 2.1565171919646673 0.08022026970738239 114.2675755927984 H 0.0 **** 0.06
21160 H 3.1165952572028743 -0.21255979424650207 112.79843219647117 H 0.0 **** 0.06
21161 C 97.84688794065465 31.444102272001217 63.96177348379131 C 0.0 **** -0.24
21162 H 97.67910111507598 31.415376465347336 62.88597941730547 H 0.0 **** 0.06
21163 H 98.88568628207196 31.708116651373373 64.16049689444662 H 0.0 **** 0.06
21164 H 97.63193143338816 30.464911599111318 64.38988434195025 H 0.0 **** 0.06
21165 H 97.19002521274712 32.18925881463315 64.41161313330468 H 0.0 **** 0.06
21166 C 96.45461529265313 43.00501050298584 6.11635818790141 C 0.0 **** -0.24
21167 H 96.5182860730938 42.251845577894755 6.901588844851091 H 0.0 **** 0.06
21168 H 95.54382904331155 42.84873996365006 5.536662054690153 H 0.0 **** 0.06
21169 H 97.32171275675626 42.92044447926443 5.461066525361604 H 0.0 **** 0.06
21170 H 96.43397928075288 43.99808714606165 6.565268544046276 H 0.0 **** 0.06
21171 C 63.85176705721722 58.566595916232814 1.8876156964560948 C 0.0 **** -0.24
21172 H 63.27562904079963 59.49142015800095 1.9081741751263337 H 0.0 **** 0.06
21173 H 63.198040055294115 57.73631663840132 1.6213604271915756 H 0.0 **** 0.06
21174 H 64.28527641379225 58.38710695990579 2.871725421924708 H 0.0 **** 0.06
21175 H 64.65027626954998 58.652135215901865 1.1491126394945752 H 0.0 **** 0.06
21176 C 38.65652459556679 64.80839471772762 80.01609043227666 C 0.0 **** -0.24
21177 H 38.896505220478616 65.85675454216491 80.19332063535438 H 0.0 **** 0.06
21178 H 37.6885624569415 64.57654935546057 80.45924450935738 H 0.0 **** 0.06
21179 H 39.424175254133274 64.18049830720739 80.46916236369483 H 0.0 **** 0.06
21180 H 38.62087940220039 64.62006718492415 78.94348534274039 H 0.0 **** 0.06
21181 C 62.493151984448616 41.389201987909246 69.80629639632247 C 0.0 **** -0.24
21182 H 61.4741384424876 41.35025752264232 69.41954921827272 H 0.0 **** 0.06
21183 H 62.59230914087644 40.69244929961138 70.63872484764903 H 0.0 **** 0.06
21184 H 62.712110631615275 42.40000791813162 70.14978442422222 H 0.0 **** 0.06
21185 H 63.19175770667309 41.113621952279914 69.01640257576202 H 0.0 **** 0.06
21186 C 6.2831019701549025 64.63425214887476 60.56254401163196 C 0.0 **** -0.24
21187 H 6.411782547788919 63.61779984615503 60.19176032474226 H 0.0 **** 0.06
21188 H 6.904389700276894 64.7792467336462 61.446789307569986 H 0.0 **** 0.06
21189 H 5.237868753494386 64.79681318149991 60.823166209606484 H 0.0 **** 0.06
21190 H 6.58039086163096 65.34332602008061 59.789828579946146 H 0.0 **** 0.06
21191 C 3.720553972093752 48.45232456411682 5.940665893992104 C 0.0 **** -0.24
21192 H 3.4586887391129206 47.40962699533506 6.118269114876597 H 0.0 **** 0.06
21193 H 4.8051619779704975 48.55899355407311 5.93754347686928 H 0.0 **** 0.06
21194 H 3.296284790510086 49.07261345238123 6.730455708402133 H 0.0 **** 0.06
21195 H 3.3209279830676834 48.76735264318651 4.976802345483861 H 0.0 **** 0.06
21196 C 9.834414277935139 1.0323886573893262 7.506052811105349 C 0.0 **** -0.24
21197 H 9.30572415062639 0.18946487822171676 7.061394739492684 H 0.0 **** 0.06
21198 H 10.372846635440737 1.5748493792719742 6.7286201397609915 H 0.0 **** 0.06
21199 H 10.54138076243595 0.6668221043941571 8.25122265109097 H 0.0 **** 0.06
21200 H 9.116123221283729 1.6997648868803967 7.98380021479224 H 0.0 **** 0.06
21201 C 98.13274537515372 74.28159004419979 42.06528954899517 C 0.0 **** -0.24
21202 H 97.4731350489985 73.48316938183649 41.72451210373001 H 0.0 **** 0.06
21203 H 97.93006514184998 75.1882234023185 41.49486841845106 H 0.0 **** 0.06
21204 H 99.17107277398159 73.98226353743257 41.91582872149064 H 0.0 **** 0.06
21205 H 97.95751884226337 74.47037249447703 43.124243464823905 H 0.0 **** 0.06
21206 C 92.93059370716091 89.75671912285685 100.05774371944165 C 0.0 **** -0.24
21207 H 93.41917125025572 88.9642241518105 100.62370415433989 H 0.0 **** 0.06
21208 H 91.85425003935293 89.71819216318451 100.23294275813731 H 0.0 **** 0.06
21209 H 93.13061307196858 89.62056278554351 98.99533314647519 H 0.0 **** 0.06
21210 H 93.31607537606521 90.72432182310155 100.37982522317506 H 0.0 **** 0.06
21211 C 0.6690592747355755 72.03831037913338 100.33453670547564 C 0.0 **** -0.24
21212 H 0.6257703047386194 71.16298220703885 99.68565668194407 H 0.0 **** 0.06
21213 H 0.2579099686993338 72.8999070810973 99.80906748099795 H 0.0 **** 0.06
21214 H 1.7060819084523935 72.23763126844136 100.6062145649098 H 0.0 **** 0.06
21215 H 0.08728101985888514 71.84969209643063 101.23678765428969 H 0.0 **** 0.06
21216 C 72.80873843769086 71.96773081591186 26.28350664572728 C 0.0 **** -0.24
21217 H 73.01207318067705 73.00084347181016 26.001975508125412 H 0.0 **** 0.06
21218 H 73.64725124405592 71.57613152093154 26.859598520869397 H 0.0 **** 0.06
21219 H 72.67322134431751 71.36679158723229 25.383360642646295 H 0.0 **** 0.06
21220 H 71.90185386056987 71.9282808540921 26.88636616042558 H 0.0 **** 0.06
21221 C 95.91129790771654 55.1641708297048 29.580659017898427 C 0.0 **** -0.24
21222 H 96.35139819554581 56.01427484720844 30.101041002848575 H 0.0 **** 0.06
21223 H 95.2599606588706 55.52408027152285 28.783683108256582 H 0.0 **** 0.06
21224 H 95.33045851103901 54.56819087426416 30.28359711930389 H 0.0 **** 0.06
21225 H 96.70470339469847 54.55021489264803 29.15251826346173 H 0.0 **** 0.06
21226 C 41.28779215293747 48.92743623688631 10.12405654965869 C 0.0 **** -0.24
21227 H 40.87627040582379 48.69970861514443 9.140943876152647 H 0.0 **** 0.06
21228 H 42.15169409303175 48.28885295263433 10.313116061539404 H 0.0 **** 0.06
21229 H 40.529678187819066 48.74842429021703 10.885345197287307 H 0.0 **** 0.06
21230 H 41.5961483067763 49.972754329048115 10.155761082514147 H 0.0 **** 0.06
21231 C 1.0926924551520152 64.97268690180852 79.86504532311994 C 0.0 **** -0.24
21232 H 2.069808219975549 64.94603092402764 80.34625395485949 H 0.0 **** 0.06
21233 H 0.7039635013457044 65.9908078931195 79.88693185074632 H 0.0 **** 0.06
21234 H 0.4080858957551854 64.31096964496305 80.39521857116273 H 0.0 **** 0.06
21235 H 1.1883803630940957 64.64258937176209 78.83051401371145 H 0.0 **** 0.06
21236 C 66.9552434295529 81.53025696900698 38.582577502904826 C 0.0 **** -0.24
21237 H 67.9554190510706 81.73695902350468 38.201052159837275 H 0.0 **** 0.06
21238 H 66.65126387637522 82.3313262833108 39.25689419117964 H 0.0 **** 0.06
21239 H 66.96108351647163 80.58390373690014 39.12360618610438 H 0.0 **** 0.06
21240 H 66.2534041280453 81.4691548090614 37.75096240082024 H 0.0 **** 0.06
21241 C 43.60730828565795 99.32702000319733 3.0976073786157645 C 0.0 **** -0.24
21242 H 43.03434235452346 99.88088261687454 2.3534132765171325 H 0.0 **** 0.06
21243 H 44.3362863360544 98.69112970346379 2.5946857816471027 H 0.0 **** 0.06
21244 H 42.932759263291075 98.70963368182456 3.6896177089942466 H 0.0 **** 0.06
21245 H 44.12666012224287 100.02819722458403 3.751604932900305 H 0.0 **** 0.06
21246 C 55.8044248841177 102.89801550313601 90.01698018746202 C 0.0 **** -0.24
21247 H 55.790062852125224 103.16441410745037 91.07427113119272 H 0.0 **** 0.06
21248 H 55.86181907786361 101.81340306050748 89.91647932581643 H 0.0 **** 0.06
21249 H 56.67138962733943 103.35427529306259 89.53947134929436 H 0.0 **** 0.06
21250 H 54.893784697867865 103.26019035269834 89.53893892465726 H 0.0 **** 0.06
21251 C 77.4254499932018 103.27165196494025 38.918305698822024 C 0.0 **** -0.24
21252 H 76.77214658549786 102.41603487638042 39.092829901164066 H 0.0 **** 0.06
21253 H 77.87684014241864 103.58169062988753 39.86154989602406 H 0.0 **** 0.06
21254 H 76.84358665346738 104.09523158777094 38.50496055909639 H 0.0 **** 0.06
21255 H 78.20992426876731 102.99164738102306 38.21510720323403 H 0.0 **** 0.06
21256 C 103.78522612598638 60.5160999211154 12.065856083759343 C 0.0 **** -0.24
21257 H 103.34617806754133 61.064599811264316 12.899114886491873 H 0.0 **** 0.06
21258 H 104.86807679629567 60.47752026242003 12.186477948741071 H 0.0 **** 0.06
21259 H 103.5406658684272 61.019728202389985 11.130642523993487 H 0.0 **** 0.06
21260 H 103.38434319417627 59.502837608621064 12.047665180126899 H 0.0 **** 0.06
21261 C 29.130695245639174 71.37405203418751 7.461725454048313 C 0.0 **** -0.24
21262 H 29.471594566941064 71.58027632742625 6.4463167373326495 H 0.0 **** 0.06
21263 H 29.413015856808272 72.20163757307665 8.113403201783008 H 0.0 **** 0.06
21264 H 29.592649532534665 70.45463012214043 7.819536962415327 H 0.0 **** 0.06
21265 H 28.047228708251566 71.262397097019 7.464709656706059 H 0.0 **** 0.06
21266 C 1.9011882326312133 41.75053998351564 84.35038127162852 C 0.0 **** -0.24
21267 H 2.028546334384316 40.67576238127111 84.48810098518686 H 0.0 **** 0.06
21268 H 1.004221729154608 42.07919254273776 84.87516613028009 H 0.0 **** 0.06
21269 H 1.8025455669374963 41.97162122435614 83.28821593489653 H 0.0 **** 0.06
21270 H 2.7690998594468965 42.27255403886315 84.75196717912075 H 0.0 **** 0.06
21271 C 29.734921660625815 87.26639723775185 25.41039227641926 C 0.0 **** -0.24
21272 H 29.130266432604344 88.17281402191873 25.38253136476368 H 0.0 **** 0.06
21273 H 29.721818603127304 86.85246062968503 26.418826401301658 H 0.0 **** 0.06
21274 H 30.760903254470605 87.50563926680485 25.128923542387554 H 0.0 **** 0.06
21275 H 29.32709362608213 86.53601833567325 24.711486323304314 H 0.0 **** 0.06
21276 C 28.343316953747873 11.558255782703895 4.333482216948525 C 0.0 **** -0.24
21277 H 27.368277643981678 11.109308555797384 4.522202347049586 H 0.0 **** 0.06
21278 H 28.210146078732876 12.592810006335071 4.013226394330587 H 0.0 **** 0.06
21279 H 28.85567845842135 10.999490612867135 3.5508912070327483 H 0.0 **** 0.06
21280 H 28.937490125226518 11.534620853135038 5.246655347026234 H 0.0 **** 0.06
21281 C 61.744904417600274 69.3914314597769 2.4935655179598086 C 0.0 **** -0.24
21282 H 60.94918986798455 68.92897913131065 1.9105863609013056 H 0.0 **** 0.06
21283 H 61.38144103158316 70.3229181035205 2.9281729284140994 H 0.0 **** 0.06
21284 H 62.595204422649466 69.60112473515571 1.8444975625494493 H 0.0 **** 0.06
21285 H 62.05262865491728 68.71456020854754 3.290532685774778 H 0.0 **** 0.06
21286 C 67.80415406901216 109.53175981976906 39.95477415577017 C 0.0 **** -0.24
21287 H 66.84238943749509 109.41001377558752 39.45794100586801 H 0.0 **** 0.06
21288 H 68.48751082457659 110.06989361772551 39.29764848627326 H 0.0 **** 0.06
21289 H 68.21964036554132 108.55134666280904 40.18753958139337 H 0.0 **** 0.06
21290 H 67.66786286537501 110.0960148993367 40.87749323428574 H 0.0 **** 0.06
21291 C 21.47490414380286 75.23135792751481 66.16161600155363 C 0.0 **** -0.24
21292 H 21.69283255576363 75.06592869913919 65.10657148134337 H 0.0 **** 0.06
21293 H 20.91594399679275 74.38207972425238 66.5549627646154 H 0.0 **** 0.06
21294 H 20.881628651327446 76.13958837494732 66.27137601537956 H 0.0 **** 0.06
21295 H 22.40875817256051 75.33912893344456 66.71320699457405 H 0.0 **** 0.06
21296 C 54.67392869880643 29.896232292321628 97.1443183797511 C 0.0 **** -0.24
21297 H 55.353403495902505 29.084989763766316 96.87962566684445 H 0.0 **** 0.06
21298 H 55.241042784737594 30.71174205642629 97.59494916371162 H 0.0 **** 0.06
21299 H 53.93343174694854 29.531518914035956 97.85543786559418 H 0.0 **** 0.06
21300 H 54.17137098780242 30.25583323324443 96.24636877939503 H 0.0 **** 0.06
21301 C 32.917374271206654 114.36196170309509 82.98394379073153 C 0.0 **** -0.24
21302 H 33.711493865125895 114.19793412827084 83.71259776612254 H 0.0 **** 0.06
21303 H 32.463437967490705 113.40640220395022 82.71941684511916 H 0.0 **** 0.06
21304 H 33.33474695216516 114.82588288962991 82.09010780885177 H 0.0 **** 0.06
21305 H 32.15981830004473 115.0176275905296 83.41365274283265 H 0.0 **** 0.06
21306 C 52.50924862584191 52.26512790825498 29.76216295946324 C 0.0 **** -0.24
21307 H 53.11730704916391 51.3674550585977 29.87297343783041 H 0.0 **** 0.06
21308 H 52.04560454564774 52.269007573919936 28.774920955886984 H 0.0 **** 0.06
21309 H 53.140794857417895 53.14681796771467 29.87113344014837 H 0.0 **** 0.06
21310 H 51.734746774147716 52.275464086832926 30.528757758916043 H 0.0 **** 0.06
21311 C 116.32984637500107 116.64985440281592 82.68769411780812 C 0.0 **** -0.24
21312 H 115.5445482808675 115.90928473197907 82.5357268755763 H 0.0 **** 0.06
21313 H 116.25142405665508 117.05923318537994 83.69544090713691 H 0.0 **** 0.06
21314 H 116.21715290581676 117.45272311743882 81.95956944380413 H 0.0 **** 0.06
21315 H 117.30363342438147 116.17726122401794 82.56154339485227 H 0.0 **** 0.06
21316 C 62.598455955414124 20.048737876921837 58.361939486961546 C 0.0 **** -0.24
21317 H 63.39240262081529 19.751219212223102 57.676409802797906 H 0.0 **** 0.06
21318 H 63.003110024545094 20.131980674582426 59.37120375347081 H 0.0 **** 0.06
21319 H 61.80687874031395 19.300373187394204 58.34854925412375 H 0.0 **** 0.06
21320 H 62.1931345620859 21.012106627540355 58.052849247871336 H 0.0 **** 0.06
21321 C 6.747124874525355 43.32902550151579 53.48857547073413 C 0.0 **** -0.24
21322 H 7.3206584312469545 44.24378525690665 53.63829661420439 H 0.0 **** 0.06
21323 H 6.679244226615168 42.78523667575328 54.43142040402873 H 0.0 **** 0.06
21324 H 7.243506362697701 42.70731480513081 52.74427396783571 H 0.0 **** 0.06
21325 H 5.744933088418804 43.581977833299334 53.14233087500901 H 0.0 **** 0.06
21326 C 84.87066652352007 50.8399608867079 73.50598581053544 C 0.0 **** -0.24
21327 H 84.07736389637225 51.33286897608565 74.06839505214569 H 0.0 **** 0.06
21328 H 85.73618130806673 50.69201497071213 74.15280789415161 H 0.0 **** 0.06
21329 H 85.15375328233799 51.461439574252594 72.65626720164485 H 0.0 **** 0.06
21330 H 84.5158489945758 49.873565862029544 73.14734843635577 H 0.0 **** 0.06
21331 C 100.65293764817937 38.515759729276056 8.2046544849176 C 0.0 **** -0.24
21332 H 100.53824924752897 37.88214841938924 9.084937922629479 H 0.0 **** 0.06
21333 H 101.32772417782331 38.03454367069406 7.495563582384019 H 0.0 **** 0.06
21334 H 101.06560220229312 39.47946124170079 8.50283214909658 H 0.0 **** 0.06
21335 H 99.6804170575515 38.665326511789374 7.736513478462026 H 0.0 **** 0.06
21336 C 115.32438768457868 64.95946627639779 34.05856801186792 C 0.0 **** -0.24
21337 H 116.11567690743937 65.59815162621098 33.66821194193848 H 0.0 **** 0.06
21338 H 114.6541980598945 64.674886710017 33.24715632133144 H 0.0 **** 0.06
21339 H 114.76382227796879 65.4996822156449 34.82125845580533 H 0.0 **** 0.06
21340 H 115.76394399361246 64.06346243132953 34.49804837874864 H 0.0 **** 0.06
21341 C 87.27222324486928 42.6060430693646 43.388310849638174 C 0.0 **** -0.24
21342 H 86.62900091016144 42.619088804354874 44.26905286324097 H 0.0 **** 0.06
21343 H 87.60146044605568 43.62120972381064 43.16593702851526 H 0.0 **** 0.06
21344 H 86.716549518909 42.20937981360203 42.53948551177862 H 0.0 **** 0.06
21345 H 88.13986821292343 41.97588255760752 43.581599388721656 H 0.0 **** 0.06
21346 C 95.35824527668319 116.99556250034493 57.71852719161486 C 0.0 **** -0.24
21347 H 95.74274654259057 117.00126549419775 58.737926406782826 H 0.0 **** 0.06
21348 H 96.15864428209497 117.25887282379779 57.02697843610151 H 0.0 **** 0.06
21349 H 94.54959888539096 117.72154428823319 57.631924376532886 H 0.0 **** 0.06
21350 H 94.98188723548137 116.00116600946234 57.4780738202411 H 0.0 **** 0.06
21351 C 118.28426814511533 106.4101392333892 93.70848951238588 C 0.0 **** -0.24
21352 H 118.11038960543604 105.93059607535125 94.67177513095885 H 0.0 **** 0.06
21353 H 117.67913711990747 107.31496055914218 93.63833625297667 H 0.0 **** 0.06
21354 H 118.00821193751187 105.725081152955 92.90693355045477 H 0.0 **** 0.06
21355 H 119.33857501184653 106.67008787853067 93.61809451624237 H 0.0 **** 0.06
21356 C 36.608270288172065 115.25032837740659 19.983339275391003 C 0.0 **** -0.24
21357 H 37.2694608146916 116.03963085122135 19.625774935624122 H 0.0 **** 0.06
21358 H 36.88400863781297 114.30585215544562 19.51458819018694 H 0.0 **** 0.06
21359 H 35.57702624022346 115.49552906144126 19.72748587450718 H 0.0 **** 0.06
21360 H 36.70258545996026 115.16030144151804 21.06550810124591 H 0.0 **** 0.06
21361 C 16.66017927835276 32.94593053594184 40.300926867440495 C 0.0 **** -0.24
21362 H 16.81373980800153 32.64454455066391 39.264409978721005 H 0.0 **** 0.06
21363 H 15.837419230329601 32.37095693981098 40.727380747524506 H 0.0 **** 0.06
21364 H 16.419768762268834 34.007689867194074 40.338614857577255 H 0.0 **** 0.06
21365 H 17.569806228957784 32.75799771277343 40.87169447174335 H 0.0 **** 0.06
21366 C 48.75608662920099 114.35438105069443 85.81994237524344 C 0.0 **** -0.24
21367 H 49.24895497745723 113.9290603477649 84.94592942481711 H 0.0 **** 0.06
21368 H 47.68575906827101 114.43534601477575 85.62932448806617 H 0.0 **** 0.06
21369 H 49.16480907150469 115.34493239901701 86.02129927482699 H 0.0 **** 0.06
21370 H 48.924847640958745 113.70952010572915 86.68172691162633 H 0.0 **** 0.06
21371 C 38.66497239170357 0.06519316645312045 112.63828499964605 C 0.0 **** -0.24
21372 H 38.06526352635487 -0.6690962231384017 112.10053140086893 H 0.0 **** 0.06
21373 H 38.9440339541911 0.8724508837778711 111.96155820390015 H 0.0 **** 0.06
21374 H 39.56550278052167 -0.4131757104848326 113.02451272527021 H 0.0 **** 0.06
21375 H 38.08473070672028 0.4705672351383594 113.46790544873059 H 0.0 **** 0.06
21376 C 77.57531831623581 3.3897284896991238 7.176818736094003 C 0.0 **** -0.24
21377 H 78.03683525576855 2.4536598755737913 7.492149143421145 H 0.0 **** 0.06
21378 H 77.88790897382887 4.191348560608446 7.846241570609415 H 0.0 **** 0.06
21379 H 76.49124600412233 3.2887048940410892 7.210949887670893 H 0.0 **** 0.06
21380 H 77.88699914030434 3.622951535373957 6.158932879819069 H 0.0 **** 0.06
21381 C 67.96235478835771 104.07415082332506 59.64674896453988 C 0.0 **** -0.24
21382 H 68.38446432972623 104.6877355278069 60.442264445154365 H 0.0 **** 0.06
21383 H 66.88971784792994 104.25846385268017 59.577162009514495 H 0.0 **** 0.06
21384 H 68.13714661898456 103.02202792601054 59.86717962738214 H 0.0 **** 0.06
21385 H 68.43775864470254 104.33187040771776 58.699093701506115 H 0.0 **** 0.06
21386 C 61.75492785818287 28.610494860152585 99.93360532618942 C 0.0 **** -0.24
21387 H 62.46735227748832 29.385113221416873 100.21496689249165 H 0.0 **** 0.06
21388 H 61.97645046711915 27.695672220309632 100.48357065239611 H 0.0 **** 0.06
21389 H 61.83227884589283 28.418392393016006 98.8633072112217 H 0.0 **** 0.06
21390 H 60.744282995688906 28.942654677743008 100.1713307879156 H 0.0 **** 0.06
21391 C 80.7016149312025 49.60244590235072 21.518791231651846 C 0.0 **** -0.24
21392 H 79.92901372568858 50.352957457875505 21.686103381981013 H 0.0 **** 0.06
21393 H 81.66903178612074 50.09417048222167 21.416702368070787 H 0.0 **** 0.06
21394 H 80.47725253659988 49.04852027945873 20.6065310906597 H 0.0 **** 0.06
21395 H 80.72971104901734 48.91593799928626 22.36391842455714 H 0.0 **** 0.06
21396 C 100.02507456832885 16.24225075702026 41.634178691256096 C 0.0 **** -0.24
21397 H 99.93012818263176 17.24218123964198 41.21062846656898 H 0.0 **** 0.06
21398 H 100.15877869899381 15.518679032388604 40.8294807448988 H 0.0 **** 0.06
21399 H 99.12496762934259 15.998198332922698 42.19777113284411 H 0.0 **** 0.06
21400 H 100.88922498644979 16.210256714866546 42.29907124525246 H 0.0 **** 0.06
21401 C 85.702896120672 94.77517184243914 52.08216486888324 C 0.0 **** -0.24
21402 H 85.50725139342529 94.15651402372407 52.95780874261038 H 0.0 **** 0.06
21403 H 86.49163209266541 95.49228564128998 52.313099985364886 H 0.0 **** 0.06
21404 H 84.79512812756377 95.30925278077785 51.804009684704226 H 0.0 **** 0.06
21405 H 86.01958685236792 94.14079057828178 51.254477764011824 H 0.0 **** 0.06
21406 C 25.49695076012469 112.75360613361147 13.856744788598046 C 0.0 **** -0.24
21407 H 26.177705730638564 111.90495921152561 13.92805872006112 H 0.0 **** 0.06
21408 H 26.062648603403744 113.68085688614156 13.94764891091836 H 0.0 **** 0.06
21409 H 24.7602700618925 112.69683473051882 14.658565322702696 H 0.0 **** 0.06
21410 H 24.98834626050362 112.72999088114017 12.893383327287175 H 0.0 **** 0.06
21411 C 48.401473838708796 110.45674790995884 87.7824678924145 C 0.0 **** -0.24
21412 H 47.588937827408756 110.2237722087315 87.094464907781 H 0.0 **** 0.06
21413 H 48.700825238934385 109.55056328911371 88.31043268750949 H 0.0 **** 0.06
21414 H 48.06380861331172 111.20283974235488 88.50336308219113 H 0.0 **** 0.06
21415 H 49.25001871624903 110.85006527254771 87.223231291839 H 0.0 **** 0.06
21416 C 79.20012095897997 93.66539149339175 84.83715820944471 C 0.0 **** -0.24
21417 H 79.67206950229286 92.68439471425279 84.89241636189752 H 0.0 **** 0.06
21418 H 78.3368867835805 93.69082831656971 85.50242455690929 H 0.0 **** 0.06
21419 H 78.87568543525921 93.85523701454315 83.81364470988811 H 0.0 **** 0.06
21420 H 79.91547644512082 94.42976817805382 85.14042438656321 H 0.0 **** 0.06
21421 C 5.250019915529776 19.197045003719666 118.08717885378258 C 0.0 **** -0.24
21422 H 4.704695574358567 19.53063420141575 118.97017103550273 H 0.0 **** 0.06
21423 H 5.286633136361388 20.005257849955427 117.35672828276351 H 0.0 **** 0.06
21424 H 4.743189101507653 18.336197258069944 117.65178223104103 H 0.0 **** 0.06
21425 H 6.264762198116671 18.916671324623593 118.3710455750286 H 0.0 **** 0.06
21426 C 72.25747733467836 27.073874977130004 64.08798247066846 C 0.0 **** -0.24
21427 H 72.5232270367245 27.99682332282714 63.57321846902988 H 0.0 **** 0.06
21428 H 72.58261042867224 26.219804661077433 63.49244234946195 H 0.0 **** 0.06
21429 H 71.17652120973344 27.031911445814046 64.22390348555786 H 0.0 **** 0.06
21430 H 72.74765413737862 27.046710191835814 65.06097749839438 H 0.0 **** 0.06
21431 C 65.36837453037228 115.66960147594821 1.7705175769099366 C 0.0 **** -0.24
21432 H 65.31364847123703 115.48910031104407 2.845037971405576 H 0.0 **** 0.06
21433 H 64.82409887541425 114.88599144789825 1.2435385471063363 H 0.0 **** 0.06
21434 H 66.41168469552471 115.66321060014397 1.4546906689008878 H 0.0 **** 0.06
21435 H 64.92478742373928 116.63797658540801 1.5417958658190543 H 0.0 **** 0.06
21436 C 107.97441183500368 25.695241118446347 118.46771000137784 C 0.0 **** -0.24
21437 H 108.26960250096289 25.037538521177964 117.65001485821708 H 0.0 **** 0.06
21438 H 106.91175345143992 25.56333120610381 118.67482491692753 H 0.0 **** 0.06
21439 H 108.16532942488817 26.730648292540366 118.18810859851132 H 0.0 **** 0.06
21440 H 108.5510335793538 25.44676209789438 119.35878021050658 H 0.0 **** 0.06
21441 C 99.33117931500362 83.99889433084633 24.16004620814647 C 0.0 **** -0.24
21442 H 100.09986272015738 83.46050106535634 24.71467229672021 H 0.0 **** 0.06
21443 H 98.90110737200041 83.34198548255779 23.403487219566614 H 0.0 **** 0.06
21444 H 99.77517407695836 84.86867393075636 23.675452883611285 H 0.0 **** 0.06
21445 H 98.54988545299352 84.32555229808764 24.845578105979826 H 0.0 **** 0.06
21446 C 31.708982149163205 84.09287108114859 6.549328330216159 C 0.0 **** -0.24
21447 H 32.74900080833845 84.12638011666547 6.876141714551554 H 0.0 **** 0.06
21448 H 31.540200514116748 84.86554977567056 5.798971088325276 H 0.0 **** 0.06
21449 H 31.054109376114184 84.26552821406224 7.403412480826521 H 0.0 **** 0.06
21450 H 31.495400094009142 83.11509112107464 6.119142853613029 H 0.0 **** 0.06
21451 C 52.829195390217905 81.03966998098565 24.930299320316998 C 0.0 **** -0.24
21452 H 52.82131577878309 80.71059119544981 25.96898964130625 H 0.0 **** 0.06
21453 H 53.03846646056738 80.18865709202379 24.28124976884739 H 0.0 **** 0.06
21454 H 53.60141187806428 81.79678466268666 24.795846371159143 H 0.0 **** 0.06
21455 H 51.85755839325719 81.46160273287418 24.67527027842354 H 0.0 **** 0.06
21456 C 25.541844787755622 89.11265920774454 102.81735700971296 C 0.0 **** -0.24
21457 H 24.669051793714686 89.43640202994902 102.25078882048021 H 0.0 **** 0.06
21458 H 26.36132980250781 88.89917066634905 102.13090123016559 H 0.0 **** 0.06
21459 H 25.294344860841136 88.2126916493931 103.38064536579631 H 0.0 **** 0.06
21460 H 25.839837667612443 89.90157351313707 103.50643095995946 H 0.0 **** 0.06
21461 C 13.100871306675543 52.74661422496055 69.4703950021615 C 0.0 **** -0.24
21462 H 12.911721293782307 52.60806138028909 70.53470178541957 H 0.0 **** 0.06
21463 H 12.893976362257263 51.81649351624395 68.94059735356535 H 0.0 **** 0.06
21464 H 14.14382015226245 53.02630502685423 69.31953955283308 H 0.0 **** 0.06
21465 H 12.453967418399884 53.53559697645488 69.08674131682793 H 0.0 **** 0.06
21466 C 41.14767466737425 105.925384626734 44.8992453869827 C 0.0 **** -0.24
21467 H 41.87800244665907 105.12213704372854 44.80531358304941 H 0.0 **** 0.06
21468 H 40.99069820695699 106.15137641919509 45.95462292784566 H 0.0 **** 0.06
21469 H 40.204400462244976 105.61162260102438 44.450295688299974 H 0.0 **** 0.06
21470 H 41.51563935894404 106.81436582080661 44.38775839316739 H 0.0 **** 0.06
21471 C 101.98556651919498 28.04006083891123 116.09343644882193 C 0.0 **** -0.24
21472 H 102.90433790675041 27.455302150023044 116.0542962662833 H 0.0 **** 0.06
21473 H 102.16797473065353 28.967166204230274 116.63719234680445 H 0.0 **** 0.06
21474 H 101.21076536657367 27.466251559867246 116.60237719509615 H 0.0 **** 0.06
21475 H 101.65897398538934 28.271962066715382 115.07900715660503 H 0.0 **** 0.06
21476 C 27.1872306775129 117.25299536795947 59.13318997077607 C 0.0 **** -0.24
21477 H 26.28287403848367 117.74255666858892 58.77209668520891 H 0.0 **** 0.06
21478 H 27.647674645710254 116.69476516967794 58.318153188724835 H 0.0 **** 0.06
21479 H 26.930629618251146 116.56893585604328 59.94301658029889 H 0.0 **** 0.06
21480 H 27.88607210803633 118.00492328961295 59.50074359927501 H 0.0 **** 0.06
21481 C 16.03799924557555 89.57823069635555 83.02242952798349 C 0.0 **** -0.24
21482 H 15.891270836790625 90.29655852489657 82.21527432112524 H 0.0 **** 0.06
21483 H 15.068730455401635 89.24093740784298 83.38861223430337 H 0.0 **** 0.06
21484 H 16.58979638990924 90.05194825214559 83.83404959276186 H 0.0 **** 0.06
21485 H 16.603027736322858 88.72372862739749 82.6487402922057 H 0.0 **** 0.06
21486 C 62.37859036603609 71.31646735227798 106.5781847748068 C 0.0 **** -0.24
21487 H 62.97256596927119 72.19879664016668 106.81735543322796 H 0.0 **** 0.06
21488 H 61.404132246932164 71.39286348528509 107.05927052679945 H 0.0 **** 0.06
21489 H 62.893031955683625 70.42422380046631 106.93859983186027 H 0.0 **** 0.06
21490 H 62.247811812220675 71.24827564160586 105.49849389610333 H 0.0 **** 0.06
21491 C 38.80143011295485 116.82183977761116 30.649070292548373 C 0.0 **** -0.24
21492 H 39.44480696929929 117.5766362256912 31.101953445352393 H 0.0 **** 0.06
21493 H 38.93068982017252 116.83613352809522 29.566177743926232 H 0.0 **** 0.06
21494 H 37.7618989195789 117.03657638841156 30.89316566488975 H 0.0 **** 0.06
21495 H 39.069549201010716 115.8377944578242 31.034311209551106 H 0.0 **** 0.06
21496 C 27.644478578817967 14.337651819536458 60.90805478674787 C 0.0 **** -0.24
21497 H 26.884010958754516 14.046333685983733 61.632850852398974 H 0.0 **** 0.06
21498 H 28.330031816967676 13.504377351613584 60.74769237913216 H 0.0 **** 0.06
21499 H 28.19845263306695 15.196313601313445 61.28793803743261 H 0.0 **** 0.06
21500 H 27.16520122075346 14.600514214098244 59.96533101418129 H 0.0 **** 0.06
21501 C 61.66654660806268 6.273167464918842 22.20912829322222 C 0.0 **** -0.24
21502 H 60.9262126645227 5.566397506760566 22.58126849614834 H 0.0 **** 0.06
21503 H 62.47163275533696 5.730175461370109 21.714432905312805 H 0.0 **** 0.06
21504 H 62.074306544047154 6.845679163704432 23.043016676045085 H 0.0 **** 0.06
21505 H 61.195435186898244 6.9518913839588095 21.498726018563133 H 0.0 **** 0.06
21506 C 68.40334050272409 112.07611716530238 16.943376310018763 C 0.0 **** -0.24
21507 H 67.89739218071946 111.25176596158012 16.439872572834858 H 0.0 **** 0.06
21508 H 67.70937434609311 112.56594235194694 17.62565174242981 H 0.0 **** 0.06
21509 H 68.75259077749016 112.79422661846614 16.201163635985765 H 0.0 **** 0.06
21510 H 69.25514758104609 111.69057271676479 17.504855454178866 H 0.0 **** 0.06
21511 C 27.46288758956517 100.18720743425911 102.01233096817373 C 0.0 **** -0.24
21512 H 27.743970642079354 100.02642249280262 103.05245404175625 H 0.0 **** 0.06
21513 H 27.016266627909083 101.1765375492406 101.9061693361513 H 0.0 **** 0.06
21514 H 26.74143638078442 99.42874108489713 101.70984713373232 H 0.0 **** 0.06
21515 H 28.34911195873876 100.11908536945134 101.38161922329428 H 0.0 **** 0.06
21516 C 75.89086572913865 52.190490402665944 63.48634924510307 C 0.0 **** -0.24
21517 H 75.40346892159474 51.34494617049597 62.99968103624366 H 0.0 **** 0.06
21518 H 75.54482526025467 52.263489950151495 64.51802298546122 H 0.0 **** 0.06
21519 H 75.64348554128748 53.108349535995444 62.95354891644027 H 0.0 **** 0.06
21520 H 76.97099092073339 52.04284767402282 63.473827463474095 H 0.0 **** 0.06
21521 C 1.937087451367148 65.2605438296714 37.23841650934747 C 0.0 **** -0.24
21522 H 2.3280635085655774 65.31038426679464 38.25509112482564 H 0.0 **** 0.06
21523 H 0.8540192163641223 65.38321718455057 37.26007388747206 H 0.0 **** 0.06
21524 H 2.1849073202781994 64.29307910426985 36.80169475762506 H 0.0 **** 0.06
21525 H 2.381387890489549 66.0547820084941 36.63892557924112 H 0.0 **** 0.06
21526 C 73.85501155769842 2.6189182656779337 53.66654244428793 C 0.0 **** -0.24
21527 H 74.7926982148206 3.1509638900380423 53.50714754351648 H 0.0 **** 0.06
21528 H 73.31913428664836 2.536573276723743 52.720551711888135 H 0.0 **** 0.06
21529 H 73.24424323438558 3.167227075855493 54.383423217941555 H 0.0 **** 0.06
21530 H 74.06447029859027 1.621574168904317 54.05449271762623 H 0.0 **** 0.06
21531 C 30.513958411636622 95.08802071631266 115.61740739837242 C 0.0 **** -0.24
21532 H 31.280317255157115 94.3129317020884 115.60086272341361 H 0.0 **** 0.06
21533 H 29.931712641564218 95.0430627861777 114.6967727009582 H 0.0 **** 0.06
21534 H 30.990038384656145 96.06541775841453 115.70024152501621 H 0.0 **** 0.06
21535 H 29.857799241834556 94.93046098495626 116.47258022387844 H 0.0 **** 0.06
21536 C 53.65558614283475 21.66567362509585 10.541539612002737 C 0.0 **** -0.24
21537 H 53.074145038145616 21.223223962265592 11.350463039860529 H 0.0 **** 0.06
21538 H 52.980367637977906 22.030509926020727 9.767223757825036 H 0.0 **** 0.06
21539 H 54.32179797677003 20.91383625952102 10.119736490125717 H 0.0 **** 0.06
21540 H 54.24521258003648 22.49616265046376 10.931234721996987 H 0.0 **** 0.06
21541 C 34.97856456848757 101.02736005954154 78.55445364033085 C 0.0 **** -0.24
21542 H 34.8450855401382 100.2458868904721 77.8065675597766 H 0.0 **** 0.06
21543 H 35.05422625108059 100.5741274797362 79.54391320441175 H 0.0 **** 0.06
21544 H 34.12425403214604 101.70440163019805 78.52931735401373 H 0.0 **** 0.06
21545 H 35.89021464533164 101.5844106995558 78.3386451971032 H 0.0 **** 0.06
21546 C 70.35251164179408 58.05157324379621 52.9842196053533 C 0.0 **** -0.24
21547 H 69.44852627670133 58.51636588808003 53.37841861185689 H 0.0 **** 0.06
21548 H 70.40933194114788 57.018046209990416 53.32851599102099 H 0.0 **** 0.06
21549 H 71.2258884539581 58.60044101172565 53.336567007419205 H 0.0 **** 0.06
21550 H 70.32537833494911 58.07114230184817 51.89440749023623 H 0.0 **** 0.06
21551 C 12.461326398236224 65.71649522222268 98.74214079898042 C 0.0 **** -0.24
21552 H 11.47831423775716 65.27907955049392 98.56683190625833 H 0.0 **** 0.06
21553 H 12.391925056932735 66.457291214093 99.53934364738564 H 0.0 **** 0.06
21554 H 12.813084494930365 66.19695417792997 97.82931442646608 H 0.0 **** 0.06
21555 H 13.161297342342209 64.93339997220863 99.03406218286739 H 0.0 **** 0.06
21556 C 16.695828353857067 66.80402017224864 111.07627010589522 C 0.0 **** -0.24
21557 H 16.253517401277207 65.9484598350191 110.56490999902206 H 0.0 **** 0.06
21558 H 16.022813792943566 67.1425714446745 111.86536143811097 H 0.0 **** 0.06
21559 H 16.85425176155414 67.61149723238336 110.3624765057713 H 0.0 **** 0.06
21560 H 17.650820668006048 66.51124030309276 111.51333673207188 H 0.0 **** 0.06
21561 C 15.967786992750291 9.441985759159962 31.015231770860346 C 0.0 **** -0.24
21562 H 16.55121186995268 10.110815783508372 30.38187608514339 H 0.0 **** 0.06
21563 H 16.208407132960147 8.407778084813856 30.769972772392848 H 0.0 **** 0.06
21564 H 14.905652497990658 9.618137141500227 30.84616209958231 H 0.0 **** 0.06
21565 H 16.206839959869626 9.633445314621582 32.06115981198096 H 0.0 **** 0.06
21566 C 112.68982549242662 114.68958327796275 100.11992247792975 C 0.0 **** -0.24
21567 H 111.80526765664278 114.30937247750596 100.6302632595827 H 0.0 **** 0.06
21568 H 112.90209718305827 115.70146051651139 100.46514089333053 H 0.0 **** 0.06
21569 H 112.51123885798937 114.70211299376734 99.04492230841987 H 0.0 **** 0.06
21570 H 113.54127887156379 114.04450359272727 100.33842409227813 H 0.0 **** 0.06
21571 C 62.377797954340814 103.88556481353746 115.34795182848023 C 0.0 **** -0.24
21572 H 62.849392585488495 103.05201918017133 115.86819767011059 H 0.0 **** 0.06
21573 H 63.11424731561059 104.67099130000602 115.17678475190934 H 0.0 **** 0.06
21574 H 61.56262079450914 104.27871215057212 115.95641465326554 H 0.0 **** 0.06
21575 H 61.98374808192769 103.54221163025528 114.39175005957628 H 0.0 **** 0.06
21576 C 38.187592158669815 8.887651538647972 99.23388457746753 C 0.0 **** -0.24
21577 H 37.518883725482226 8.73495092629392 98.38638580987168 H 0.0 **** 0.06
21578 H 38.98552118503244 9.57206388681854 98.94703351100742 H 0.0 **** 0.06
21579 H 38.61764268494744 7.9314684220557865 99.53202709801431 H 0.0 **** 0.06
21580 H 37.626860265619314 9.309675609746535 100.06766750741494 H 0.0 **** 0.06
21581 C 33.60707395609641 102.76215716968781 6.265717971967646 C 0.0 **** -0.24
21582 H 32.78511862301485 102.0918283710487 6.0151799928251535 H 0.0 **** 0.06
21583 H 34.52817955986406 102.39110321043268 5.813721145850494 H 0.0 **** 0.06
21584 H 33.724322987032764 102.80385100945628 7.348600171790807 H 0.0 **** 0.06
21585 H 33.39128231328274 103.76013220267106 5.884537761264355 H 0.0 **** 0.06
21586 C 20.389960179117313 12.295118370653086 105.02503170995607 C 0.0 **** -0.24
21587 H 19.833238117542702 13.224545301333421 104.90701614984422 H 0.0 **** 0.06
21588 H 20.634204292480824 11.89161929703738 104.04163709761255 H 0.0 **** 0.06
21589 H 19.781624868518836 11.574926513501225 105.57230807267678 H 0.0 **** 0.06
21590 H 21.308694337934693 12.490016458395417 105.57803608292028 H 0.0 **** 0.06
21591 C 58.59039524894857 77.10715717625965 114.29952601907206 C 0.0 **** -0.24
21592 H 59.16483937818097 78.0133071303296 114.10544920224098 H 0.0 **** 0.06
21593 H 59.190294526073416 76.23448640240858 114.03939296550422 H 0.0 **** 0.06
21594 H 57.682798352860374 77.11740075857048 113.69567046144303 H 0.0 **** 0.06
21595 H 58.324009449274 77.06491243984064 115.3556716351213 H 0.0 **** 0.06
21596 C 20.009460731290346 104.7635340090169 68.62520266549524 C 0.0 **** -0.24
21597 H 20.7056295519198 105.13335634475195 67.87270285991482 H 0.0 **** 0.06
21598 H 19.87054228759547 105.52218230015475 69.39627210541735 H 0.0 **** 0.06
21599 H 20.41095193651239 103.85643889168796 69.07678523841503 H 0.0 **** 0.06
21600 H 19.050896281250004 104.54138050293 68.15565328835214 H 0.0 **** 0.06
21601 C 22.055577498725768 18.54939037555596 71.04846593185314 C 0.0 **** -0.24
21602 H 22.90198122852533 18.45284147258627 70.36831108319367 H 0.0 **** 0.06
21603 H 21.924452189961727 19.597189141647476 71.31815362369804 H 0.0 **** 0.06
21604 H 22.243367073655918 17.962691499231767 71.9471761288209 H 0.0 **** 0.06
21605 H 21.152799167260895 18.18444113532152 70.55828440700546 H 0.0 **** 0.06
21606 C 9.181765900169609 115.73878489142304 0.9579294144958794 C 0.0 **** -0.24
21607 H 8.880243465890686 116.52724164186748 1.648370442377768 H 0.0 **** 0.06
21608 H 10.259443146386644 115.78203612364449 0.8054644691847557 H 0.0 **** 0.06
21609 H 8.673008690119019 115.87990585424077 0.003813802075001149 H 0.0 **** 0.06
21610 H 8.911576643097533 114.76898936000454 1.3741467641963823 H 0.0 **** 0.06
21611 C 114.13486164927124 77.31753203659161 13.856489417092803 C 0.0 **** -0.24
21612 H 114.23314636625443 77.54150815103361 12.793754995993254 H 0.0 **** 0.06
21613 H 114.63768484775076 78.08965364410858 14.438619651994486 H 0.0 **** 0.06
21614 H 114.5898033547097 76.3494532800031 14.066363523090331 H 0.0 **** 0.06
21615 H 113.07884934721166 77.28835650538826 14.125306056526028 H 0.0 **** 0.06
21616 C 51.126158256375916 63.74425624686882 37.942345112974635 C 0.0 **** -0.24
21617 H 51.88017051159889 64.35993764168757 37.45332729296729 H 0.0 **** 0.06
21618 H 50.45238811969705 63.32931956692112 37.19164542824366 H 0.0 **** 0.06
21619 H 50.55669668574654 64.35650295785612 38.64319900933262 H 0.0 **** 0.06
21620 H 51.61364459849616 62.93215724388808 38.48230425960074 H 0.0 **** 0.06
21621 C 90.05179635122172 95.19183577954124 103.2821462831468 C 0.0 **** -0.24
21622 H 89.42603849179619 95.66862099879373 104.03523485993674 H 0.0 **** 0.06
21623 H 90.96633622875612 94.82493249045825 103.7485381598791 H 0.0 **** 0.06
21624 H 90.30453226680635 95.91659209782395 102.50769715434984 H 0.0 **** 0.06
21625 H 89.51099199771474 94.3576536159072 102.83598230354335 H 0.0 **** 0.06
21626 C 94.90495319603241 50.922272366297214 113.49779567594315 C 0.0 **** -0.24
21627 H 93.99007786499587 50.45134153701306 113.13866501569647 H 0.0 **** 0.06
21628 H 95.76790740991515 50.366250761726235 113.13201904699817 H 0.0 **** 0.06
21629 H 94.90787920806036 50.92267478193747 114.58820564400321 H 0.0 **** 0.06
21630 H 94.95167117951078 51.94852852212303 113.13468653129034 H 0.0 **** 0.06
21631 C 101.04717223453855 11.40983181574152 22.610384694500624 C 0.0 **** -0.24
21632 H 100.05528985798179 11.735658023320408 22.923721904094634 H 0.0 **** 0.06
21633 H 101.39427104277428 12.040869447778139 21.791431357762207 H 0.0 **** 0.06
21634 H 100.9998807182771 10.373639486948136 22.276813882456707 H 0.0 **** 0.06
21635 H 101.73747021883685 11.490804795293034 23.44920026144939 H 0.0 **** 0.06
21636 C 1.2965808510635952 37.785262429347625 32.956092455570165 C 0.0 **** -0.24
21637 H 0.4807564857533748 38.44770218575647 32.666812760607506 H 0.0 **** 0.06
21638 H 2.103045070463452 38.37277086170383 33.395414547473486 H 0.0 **** 0.06
21639 H 1.6676041488077544 37.260940490341966 32.074466748414544 H 0.0 **** 0.06
21640 H 0.935296781066711 37.06051371882367 33.68466133259899 H 0.0 **** 0.06
21641 C 104.66869635676125 59.87158560823763 36.079923905483454 C 0.0 **** -0.24
21642 H 103.60549384358774 59.76668047749133 36.29746455780032 H 0.0 **** 0.06
21643 H 105.1721783824132 58.92254068984084 36.266820189464475 H 0.0 **** 0.06
21644 H 105.09615724164041 60.64278824460684 36.72126803739741 H 0.0 **** 0.06
21645 H 104.79996209948624 60.15326109380812 35.03550791923532 H 0.0 **** 0.06
21646 C 36.67151113633051 15.707862393033139 108.26169183827236 C 0.0 **** -0.24
21647 H 36.09692957224893 15.29469115716681 107.43268573125346 H 0.0 **** 0.06
21648 H 37.05962939370949 14.896012442784766 108.87582323708085 H 0.0 **** 0.06
21649 H 36.02639523444253 16.345571839835927 108.86738053533196 H 0.0 **** 0.06
21650 H 37.50099121529819 16.29718588945724 107.87013824468335 H 0.0 **** 0.06
21651 C 68.2113037080766 45.83258990045999 47.16431649974797 C 0.0 **** -0.24
21652 H 68.64992250341939 45.13576440574866 46.44960579587719 H 0.0 **** 0.06
21653 H 68.95077730478911 46.584449988021106 47.439126889615125 H 0.0 **** 0.06
21654 H 67.89853536940859 45.28839876274162 48.05568879300861 H 0.0 **** 0.06
21655 H 67.34666767249348 46.31914852886314 46.71417793286713 H 0.0 **** 0.06
21656 C 47.527592630250155 47.712826232628714 62.0032182499329 C 0.0 **** -0.24
21657 H 47.61309244447503 46.69894260612551 62.39445776317774 H 0.0 **** 0.06
21658 H 48.12867595792008 48.38898116313531 62.61202361503308 H 0.0 **** 0.06
21659 H 46.4840401618882 48.026521098788805 62.032344781643644 H 0.0 **** 0.06
21660 H 47.884845334737776 47.73581146745701 60.973141156420866 H 0.0 **** 0.06
21661 C 61.68615538870961 117.4656412379706 90.72766688117761 C 0.0 **** -0.24
21662 H 62.499449989926916 116.8908637097708 90.28449167778243 H 0.0 **** 0.06
21663 H 61.728266588755616 117.37537777550965 91.81377314118211 H 0.0 **** 0.06
21664 H 60.7316668171911 117.08099896620483 90.36736353585462 H 0.0 **** 0.06
21665 H 61.78567529721724 118.51304319760119 90.44581693531319 H 0.0 **** 0.06
21666 C 67.47937296490298 59.38885868887014 110.30676070794499 C 0.0 **** -0.24
21667 H 68.50485934330422 59.57116633976566 109.98804283900131 H 0.0 **** 0.06
21668 H 66.88308360363493 60.28741146453836 110.14334844555944 H 0.0 **** 0.06
21669 H 67.46784188539209 59.13187225286605 111.36574632976024 H 0.0 **** 0.06
21670 H 67.0600928953989 58.56574523110438 109.72855745600813 H 0.0 **** 0.06
21671 C 62.71422439718762 17.847842331548406 53.55315129580643 C 0.0 **** -0.24
21672 H 63.00322749656232 18.139670974137346 52.54411921169029 H 0.0 **** 0.06
21673 H 62.16994603663659 18.66597667819113 54.02564771825939 H 0.0 **** 0.06
21674 H 63.60653283162313 17.620047128282067 54.13533984834925 H 0.0 **** 0.06
21675 H 62.076049504532364 16.96526001940157 53.50677400035646 H 0.0 **** 0.06
21676 C 65.19862582408047 38.287664607457344 12.186581468293753 C 0.0 **** -0.24
21677 H 64.33911907108748 38.73788345629791 12.684307057352072 H 0.0 **** 0.06
21678 H 65.13120964725798 38.46542316749583 11.113682837012107 H 0.0 **** 0.06
21679 H 65.20703250859682 37.21463319479295 12.377705715978493 H 0.0 **** 0.06
21680 H 66.11602878030718 38.73203297157144 12.572444313127818 H 0.0 **** 0.06
21681 C 0.13020234363352756 48.19131281849161 77.67023444593877 C 0.0 **** -0.24
21682 H -0.27149068451907965 49.174517966786 77.42694271518823 H 0.0 **** 0.06
21683 H 1.203053733801454 48.271124160905174 77.84757777424693 H 0.0 **** 0.06
21684 H -0.05227128997228192 47.50856395471507 76.84082026206337 H 0.0 **** 0.06
21685 H -0.35869092949334913 47.81062098398897 78.56778263282138 H 0.0 **** 0.06
21686 C 15.953964851559192 24.766464413193205 113.72611482599288 C 0.0 **** -0.24
21687 H 16.65691291317364 24.240066998336303 113.07991176589942 H 0.0 **** 0.06
21688 H 15.308963027977825 24.043321457738315 114.22551196043415 H 0.0 **** 0.06
21689 H 15.345044562949198 25.441748290313427 113.12462138048389 H 0.0 **** 0.06
21690 H 16.504763773641173 25.339155513236264 114.47102012966536 H 0.0 **** 0.06
21691 C 76.01552576145747 46.4122384119449 113.38808230013001 C 0.0 **** -0.24
21692 H 76.33335972320924 47.17436444144485 114.09972973285551 H 0.0 **** 0.06
21693 H 76.87223406750067 46.086329619287284 112.79852408799995 H 0.0 **** 0.06
21694 H 75.2548720445368 46.826681247006334 112.72691318905761 H 0.0 **** 0.06
21695 H 75.60114130191235 45.56159029798522 113.93012098404698 H 0.0 **** 0.06
21696 C 43.51976226695482 89.12052009954056 16.029666298857563 C 0.0 **** -0.24
21697 H 43.85764012400338 90.15568390358743 15.997761093099484 H 0.0 **** 0.06
21698 H 43.68648391508127 88.7145112714565 17.027468534443912 H 0.0 **** 0.06
21699 H 44.07776452874457 88.53363520677459 15.299653145661793 H 0.0 **** 0.06
21700 H 42.45634334512246 89.07874734051882 15.79349090010669 H 0.0 **** 0.06
21701 C 51.504484724632825 17.83907175062667 109.78904406441984 C 0.0 **** -0.24
21702 H 51.94186488545154 18.72129895960241 110.25507436411704 H 0.0 **** 0.06
21703 H 50.49512464081001 17.688933178417056 110.17262485363995 H 0.0 **** 0.06
21704 H 52.11387565082757 16.965944401402073 110.01925009912054 H 0.0 **** 0.06
21705 H 51.46553411692503 17.9807278981101 108.70872837526423 H 0.0 **** 0.06
21706 C 7.9927229830735484 16.20186835023378 111.82832631728274 C 0.0 **** -0.24
21707 H 7.313051277519435 15.95507022085485 111.01237554878031 H 0.0 **** 0.06
21708 H 9.0176451200294 16.216548105286677 111.45551298729433 H 0.0 **** 0.06
21709 H 7.903052860895073 15.453179638704512 112.61590748514654 H 0.0 **** 0.06
21710 H 7.737678600031316 17.183066167866144 112.22876080261058 H 0.0 **** 0.06
21711 C 108.68570202081526 56.494044607171425 116.95212140207208 C 0.0 **** -0.24
21712 H 108.69443720791216 55.70316555203424 117.7017756913152 H 0.0 **** 0.06
21713 H 108.06482471012774 56.1888420260018 116.10921548871528 H 0.0 **** 0.06
21714 H 109.70278739715799 56.67742458938201 116.60690604970355 H 0.0 **** 0.06
21715 H 108.28093636934145 57.40576772995302 117.39069322515901 H 0.0 **** 0.06
21716 C 6.281902398777017 26.64201213360826 82.0364374938159 C 0.0 **** -0.24
21717 H 7.079069353860042 26.457593903736097 82.75759310547983 H 0.0 **** 0.06
21718 H 5.32698722792126 26.334995681493893 82.46497638508231 H 0.0 **** 0.06
21719 H 6.475064316134887 26.06991594031234 81.12872993404915 H 0.0 **** 0.06
21720 H 6.248517459582487 27.704961705615318 81.79658285848396 H 0.0 **** 0.06
21721 C 114.1209751348785 92.43039182602328 86.95215345759487 C 0.0 **** -0.24
21722 H 114.90840231597458 92.6992631274538 87.65705082035424 H 0.0 **** 0.06
21723 H 113.1505422916721 92.51399455979583 87.44212211957012 H 0.0 **** 0.06
21724 H 114.2713493876203 91.40519930615582 86.61403743921909 H 0.0 **** 0.06
21725 H 114.15563365224868 93.10402835913064 86.09518364906177 H 0.0 **** 0.06
21726 C 49.25441969388325 62.837104433143224 29.116400816230367 C 0.0 **** -0.24
21727 H 48.194999462039846 62.596313544128094 29.20741796059491 H 0.0 **** 0.06
21728 H 49.42752244557212 63.85378166215472 29.47024606439001 H 0.0 **** 0.06
21729 H 49.55543735715432 62.759174449185 28.07217153370013 H 0.0 **** 0.06
21730 H 49.837393297950854 62.13840802525428 29.715971197130244 H 0.0 **** 0.06
21731 C 73.06612853808485 110.30776879657401 87.31308172803224 C 0.0 **** -0.24
21732 H 72.71203516219524 110.98658193912792 88.0883701372436 H 0.0 **** 0.06
21733 H 74.12295477392459 110.09474958853622 87.47137148554276 H 0.0 **** 0.06
21734 H 72.93045820467611 110.77122044987021 86.33534211170198 H 0.0 **** 0.06
21735 H 72.49722466246303 109.37888852112587 87.35602815779251 H 0.0 **** 0.06
21736 C 21.053375860056573 49.10287744140559 38.53731161357513 C 0.0 **** -0.24
21737 H 21.37024249121661 48.21371105424664 37.991774012424855 H 0.0 **** 0.06
21738 H 19.964065824066637 49.144443541602094 38.562600434297735 H 0.0 **** 0.06
21739 H 21.44008245673573 49.99123837568845 38.03813587688467 H 0.0 **** 0.06
21740 H 21.439854242981422 49.06051901507531 39.5553586467978 H 0.0 **** 0.06
21741 C 104.14840125357634 111.8101758905722 115.21098127974132 C 0.0 **** -0.24
21742 H 104.77823490807216 111.74518172573488 116.09744662896851 H 0.0 **** 0.06
21743 H 103.21214342647261 112.30659075400642 115.46695815142978 H 0.0 **** 0.06
21744 H 103.93848036315913 110.80708966515395 114.84005568386384 H 0.0 **** 0.06
21745 H 104.66426509630156 112.3827156796739 114.4394002260915 H 0.0 **** 0.06
21746 C 104.87326034106306 90.8217641812106 15.402119160802272 C 0.0 **** -0.24
21747 H 103.90798805895272 90.31815320832555 15.452288536421207 H 0.0 **** 0.06
21748 H 104.73039322091299 91.8493110244666 15.066236595920856 H 0.0 **** 0.06
21749 H 105.52237059020564 90.29698953924719 14.701145531850756 H 0.0 **** 0.06
21750 H 105.33298585354026 90.8236167872501 16.390673468279232 H 0.0 **** 0.06
21751 C 43.53459889836063 13.111074600480631 73.93095845487926 C 0.0 **** -0.24
21752 H 44.19463672003502 13.921455018916493 73.62031353645739 H 0.0 **** 0.06
21753 H 43.24359556102388 13.25714656463095 74.97108132977587 H 0.0 **** 0.06
21754 H 44.05735129540142 12.160042452675889 73.82914316023505 H 0.0 **** 0.06
21755 H 42.64531047883838 13.105858481037597 73.3011240035969 H 0.0 **** 0.06
21756 C 40.52649106682509 18.603802481340992 5.753284871324354 C 0.0 **** -0.24
21757 H 40.991478188383724 19.54076408703505 6.0636824120905715 H 0.0 **** 0.06
21758 H 40.053898933000426 18.73862452487608 4.780210219537281 H 0.0 **** 0.06
21759 H 39.77411527719465 18.312758259438464 6.48580412557817 H 0.0 **** 0.06
21760 H 41.28728144287652 17.826712916055047 5.683597377975985 H 0.0 **** 0.06
21761 C 74.73058533756051 41.54273193335928 56.73343427002914 C 0.0 **** -0.24
21762 H 75.648445939223 40.98316937888496 56.55483640873741 H 0.0 **** 0.06
21763 H 73.87681147670213 40.9579102091458 56.39187419367139 H 0.0 **** 0.06
21764 H 74.76826668140956 42.48509917971072 56.18691559529119 H 0.0 **** 0.06
21765 H 74.63044764531168 41.74483081319069 57.799531833825135 H 0.0 **** 0.06
21766 C 20.471707275858392 50.74099474182965 46.650350223624116 C 0.0 **** -0.24
21767 H 21.076392545313013 50.07918864544557 47.27034617560332 H 0.0 **** 0.06
21768 H 20.836127283784265 50.710096071790474 45.62347978092362 H 0.0 **** 0.06
21769 H 20.544346312954332 51.76018529915049 47.03134735057566 H 0.0 **** 0.06
21770 H 19.432731813440654 50.41500139498959 46.67727232858428 H 0.0 **** 0.06
21771 C 40.50927240155463 30.67843001975848 57.39039613281685 C 0.0 **** -0.24
21772 H 39.60890491929711 30.435495657846104 57.95432240269236 H 0.0 **** 0.06
21773 H 40.72337718797955 31.742426681479515 57.488939455525504 H 0.0 **** 0.06
21774 H 40.3550598683811 30.433740336424478 56.339055525022594 H 0.0 **** 0.06
21775 H 41.34843081970147 30.10112391745332 57.77863882562581 H 0.0 **** 0.06
21776 C 61.06608295280298 10.283517078845051 37.366436719701824 C 0.0 **** -0.24
21777 H 61.07776717568904 9.476106695894899 36.63418503499952 H 0.0 **** 0.06
21778 H 61.26220701699139 9.875776657644067 38.35857719646597 H 0.0 **** 0.06
21779 H 60.08992328566719 10.767820328755278 37.35688674590176 H 0.0 **** 0.06
21780 H 61.83650168005682 11.012050670677013 37.114261487866 H 0.0 **** 0.06
21781 C 49.44745899771917 55.5210462574637 71.54233294444751 C 0.0 **** -0.24
21782 H 48.415870632383104 55.8745451177278 71.51848628151683 H 0.0 **** 0.06
21783 H 50.09187218037354 56.24880814375272 71.04914144156615 H 0.0 **** 0.06
21784 H 49.51485810942373 54.56494926686137 71.02334212715382 H 0.0 **** 0.06
21785 H 49.764194956369664 55.395892177877776 72.57703593073907 H 0.0 **** 0.06
21786 C 82.65249367145594 15.280012093791612 32.649701016685384 C 0.0 **** -0.24
21787 H 82.35281248693622 14.573876007368511 31.87548750016822 H 0.0 **** 0.06
21788 H 82.19515221340856 16.25045094187476 32.45250593199614 H 0.0 **** 0.06
21789 H 83.7372296029676 15.38208441145548 32.64692430662092 H 0.0 **** 0.06
21790 H 82.32319941341183 14.913751137689843 33.62201874557579 H 0.0 **** 0.06
21791 C 87.41435440588225 102.31734342086023 51.250578813060855 C 0.0 **** -0.24
21792 H 86.54624487692567 102.70500888179905 50.71827734297358 H 0.0 **** 0.06
21793 H 87.18793821626267 101.32312827227358 51.6368191059926 H 0.0 **** 0.06
21794 H 87.65886771988369 102.9826758467033 52.079410308911264 H 0.0 **** 0.06
21795 H 88.26287836596504 102.25891458036958 50.56972151312155 H 0.0 **** 0.06
21796 C 49.420087835635286 26.081185212326076 100.09833630299886 C 0.0 **** -0.24
21797 H 50.25644240880865 25.447357076798426 100.39426793828687 H 0.0 **** 0.06
21798 H 49.45572516538681 27.014725129578665 100.65873678255576 H 0.0 **** 0.06
21799 H 48.482874415512185 25.565294271846767 100.30837949574678 H 0.0 **** 0.06
21800 H 49.48587732442161 26.29373536794219 99.03124785845264 H 0.0 **** 0.06
21801 C 60.440416527852385 75.37379985308891 97.21031244644979 C 0.0 **** -0.24
21802 H 60.062498732461854 76.38269396179973 97.37648825194887 H 0.0 **** 0.06
21803 H 61.50859230046388 75.34576244351857 97.4272226458896 H 0.0 **** 0.06
21804 H 60.27290593718113 75.08896558130624 96.17206962687041 H 0.0 **** 0.06
21805 H 59.91750447527125 74.67839080716232 97.86673289293321 H 0.0 **** 0.06
21806 C 118.42962344146324 54.3651550673556 38.58915062059452 C 0.0 **** -0.24
21807 H 118.65512704095201 55.04993395942031 39.40615338431837 H 0.0 **** 0.06
21808 H 118.65741546092978 54.846522118452725 37.638508689267724 H 0.0 **** 0.06
21809 H 117.37234170977385 54.10066886100647 38.618046757903926 H 0.0 **** 0.06
21810 H 119.03263464355658 53.46328852291653 38.69381095622816 H 0.0 **** 0.06
21811 C 79.80737753205713 35.55060352554773 14.738354293391897 C 0.0 **** -0.24
21812 H 79.42414361825826 36.57089646865171 14.691346184197887 H 0.0 **** 0.06
21813 H 79.04323317348144 34.894049236533206 15.155400431368157 H 0.0 **** 0.06
21814 H 80.69412613480026 35.52570908326388 15.371550738821394 H 0.0 **** 0.06
21815 H 80.0674643400564 35.214752036370754 13.734254083597662 H 0.0 **** 0.06
21816 C 61.31907566629865 85.78013804749733 104.40158544477765 C 0.0 **** -0.24
21817 H 61.519088640012164 84.71986164163013 104.5588221144358 H 0.0 **** 0.06
21818 H 61.189788746400474 86.27211521898613 105.36533431924391 H 0.0 **** 0.06
21819 H 60.411224928955114 85.89421992447748 103.80904604063855 H 0.0 **** 0.06
21820 H 62.158159694827084 86.23224437245705 103.87229964043118 H 0.0 **** 0.06
21821 C 13.138418693931573 33.920511145286014 7.5127794759978315 C 0.0 **** -0.24
21822 H 13.954984958815231 33.88162319939295 6.792617158821031 H 0.0 **** 0.06
21823 H 13.175965027453785 33.03760258992706 8.152011366603915 H 0.0 **** 0.06
21824 H 12.186291810055444 33.94491503816235 6.983082964953155 H 0.0 **** 0.06
21825 H 13.23678112398208 34.81704834291089 8.125442920571459 H 0.0 **** 0.06
21826 C 42.36327890243945 40.29162749426695 61.099783339975886 C 0.0 **** -0.24
21827 H 41.60600443145779 39.532479603708396 60.90202472314826 H 0.0 **** 0.06
21828 H 42.5129258849538 40.89737834148724 60.20614792784272 H 0.0 **** 0.06
21829 H 43.3000886863648 39.80622838029319 61.37236665640188 H 0.0 **** 0.06
21830 H 42.03244081630703 40.92937642952705 61.92006443836709 H 0.0 **** 0.06
21831 C 43.54001640468104 104.25558224130401 60.284742421004516 C 0.0 **** -0.24
21832 H 44.141886872112366 104.82256161718198 60.9945465234082 H 0.0 **** 0.06
21833 H 42.4904124087158 104.30473112272492 60.576883630187744 H 0.0 **** 0.06
21834 H 43.867402230706745 103.21571479605683 60.27859325151929 H 0.0 **** 0.06
21835 H 43.65932974923868 104.6800203987687 59.28709105976845 H 0.0 **** 0.06
21836 C 7.455305209666776 99.06188284264371 68.67800991863231 C 0.0 **** -0.24
21837 H 7.375034258466499 97.98886866072615 68.85696468956297 H 0.0 **** 0.06
21838 H 8.49749177727886 99.32245567365317 68.49467006587716 H 0.0 **** 0.06
21839 H 7.092514177985343 99.60284168938398 69.55112885334464 H 0.0 **** 0.06
21840 H 6.854623945650445 99.32949921200424 67.8084818332186 H 0.0 **** 0.06
21841 C 106.51971355401236 27.40625473399225 76.94929590635599 C 0.0 **** -0.24
21842 H 105.92562275482354 26.648117357560494 76.43844226365485 H 0.0 **** 0.06
21843 H 106.55800212815211 28.30963309012828 76.33896139562276 H 0.0 **** 0.06
21844 H 107.53039172992584 27.030020934821202 77.1059365475254 H 0.0 **** 0.06
21845 H 106.06360827906931 27.636071785640446 77.91158359543928 H 0.0 **** 0.06
21846 C 23.981153070412972 89.05528013159218 34.616792482895846 C 0.0 **** -0.24
21847 H 24.985291926559285 88.70192744147161 34.84821746356245 H 0.0 **** 0.06
21848 H 23.845005674149604 90.0579615588862 35.02423268357249 H 0.0 **** 0.06
21849 H 23.24750274681577 88.3811317914847 35.0595427795144 H 0.0 **** 0.06
21850 H 23.845562079264482 89.08057448430847 33.535638082566315 H 0.0 **** 0.06
21851 C 89.53999760210752 79.79460590769648 9.77783202976525 C 0.0 **** -0.24
21852 H 89.73066528343352 80.7691132258563 9.328285711965577 H 0.0 **** 0.06
21853 H 88.5326936637189 79.77735465740108 10.194931283881374 H 0.0 **** 0.06
21854 H 90.26453410379355 79.61219679612466 10.570673292611787 H 0.0 **** 0.06
21855 H 89.630959119874 79.01914362139837 9.016866952994008 H 0.0 **** 0.06
21856 C 44.94664151298258 3.2446805794004128 96.99391891569906 C 0.0 **** -0.24
21857 H 45.430091195223696 3.6837757914714135 96.12109454434588 H 0.0 **** 0.06
21858 H 45.458092452527666 3.578152439817318 97.89778899564294 H 0.0 **** 0.06
21859 H 44.99580748879342 2.157310069397541 96.92869081358032 H 0.0 **** 0.06
21860 H 43.903938056090595 3.559341703199472 97.02845018075291 H 0.0 **** 0.06
21861 C 99.45131397323405 57.96363658500192 46.11917771589957 C 0.0 **** -0.24
21862 H 99.74030824263079 57.07477125445118 46.6786526646853 H 0.0 **** 0.06
21863 H 98.47126273330983 57.805190936419535 45.668053373514624 H 0.0 **** 0.06
21864 H 100.1854237542166 58.15349901258688 45.335890616064574 H 0.0 **** 0.06
21865 H 99.40834850731312 58.81962195246993 46.792425495008885 H 0.0 **** 0.06
21866 C 49.83583017581572 11.21352810483154 0.5054472268391397 C 0.0 **** -0.24
21867 H 50.374876409404756 11.629841483983085 -0.3459134092935816 H 0.0 **** 0.06
21868 H 48.84815528869571 10.884544759302088 0.184050615166095 H 0.0 **** 0.06
21869 H 49.73136496095746 11.976629000864023 1.2768379326119224 H 0.0 **** 0.06
21870 H 50.389287257676195 10.365060529244005 0.906930177704421 H 0.0 **** 0.06
21871 C 98.63746752684506 75.5083061891651 84.59157168492925 C 0.0 **** -0.24
21872 H 98.81041069315458 76.53581536478771 84.27335468856694 H 0.0 **** 0.06
21873 H 97.69440847320627 75.45085294807629 85.13611771552496 H 0.0 **** 0.06
21874 H 99.45192052566497 75.18779586776628 85.24110305982731 H 0.0 **** 0.06
21875 H 98.59257635947009 74.8591506793149 83.71695262934159 H 0.0 **** 0.06
21876 C 91.69602606176926 6.003638065938972 91.21188247138042 C 0.0 **** -0.24
21877 H 91.19012058957927 6.1542943700974035 90.25765295799039 H 0.0 **** 0.06
21878 H 92.46926211486175 6.762983648818107 91.3363210963958 H 0.0 **** 0.06
21879 H 92.15281364188141 5.013657717668025 91.22830311779634 H 0.0 **** 0.06
21880 H 90.97310629431448 6.084285663495379 92.02348737987268 H 0.0 **** 0.06
21881 C 74.3013017248037 51.50159419667085 50.82549469331903 C 0.0 **** -0.24
21882 H 74.02542203572403 50.53739491861609 51.25201514484101 H 0.0 **** 0.06
21883 H 73.45809842075664 52.18861987237074 50.90498399558035 H 0.0 **** 0.06
21884 H 74.56614013602302 51.37192985668065 49.775317829698025 H 0.0 **** 0.06
21885 H 75.15435763738105 51.90789973350843 51.367844139164134 H 0.0 **** 0.06
21886 C 43.29036024489412 33.642256752796214 11.72303836895442 C 0.0 **** -0.24
21887 H 42.85550901832374 32.7329392570461 12.136042702601884 H 0.0 **** 0.06
21888 H 44.23920322305428 33.84881294005274 12.218787449232451 H 0.0 **** 0.06
21889 H 42.60782992790694 34.47695810794278 11.882492366410673 H 0.0 **** 0.06
21890 H 43.45918926631876 33.51097755755333 10.654138881515635 H 0.0 **** 0.06
21891 C 43.23449828395126 15.29572619199417 28.158637032913198 C 0.0 **** -0.24
21892 H 44.29263441680311 15.397489876628619 28.395429193994026 H 0.0 **** 0.06
21893 H 43.11534507671503 14.624894516880072 27.307348014353806 H 0.0 **** 0.06
21894 H 42.820800819266374 16.27377521882491 27.911078693873193 H 0.0 **** 0.06
21895 H 42.70750953574433 14.88644202316522 29.02060797487232 H 0.0 **** 0.06
21896 C 7.129930917417539 99.83110005220391 118.68844103854076 C 0.0 **** -0.24
21897 H 7.061047325119034 100.72122973709918 119.31435461676196 H 0.0 **** 0.06
21898 H 7.122694441759734 98.9426099116001 119.31988737664946 H 0.0 **** 0.06
21899 H 8.05588111334896 99.8624129784341 118.11450089780129 H 0.0 **** 0.06
21900 H 6.280600182328783 99.80108299421141 118.0060864134627 H 0.0 **** 0.06
21901 C 23.281816339890213 37.458084806792044 94.01403990151579 C 0.0 **** -0.24
21902 H 22.984058892149676 38.50607787291227 94.06313856254377 H 0.0 **** 0.06
21903 H 22.677862771405557 36.94522561378119 93.26593625502241 H 0.0 **** 0.06
21904 H 23.128802830577058 36.99233373043961 94.98730211657929 H 0.0 **** 0.06
21905 H 24.334474331982165 37.39239202496003 93.74083829589318 H 0.0 **** 0.06
21906 C 95.846685440517 32.468269994346485 53.479368382236316 C 0.0 **** -0.24
21907 H 96.10903796468702 32.785810207598985 54.48857100711842 H 0.0 **** 0.06
21908 H 95.88264530545933 33.32661943226509 52.808164443607495 H 0.0 **** 0.06
21909 H 94.83997979628995 32.04962165854113 53.48032880012272 H 0.0 **** 0.06
21910 H 96.55399811815946 31.711505257068495 53.141187315865295 H 0.0 **** 0.06
21911 C 67.87069151855258 57.25964569049405 35.9530214717974 C 0.0 **** -0.24
21912 H 68.17202589746105 58.27363005382016 36.21467932654855 H 0.0 **** 0.06
21913 H 67.70194694596512 56.684710681176874 36.86420182833598 H 0.0 **** 0.06
21914 H 68.65717558584083 56.78708212120696 35.36462020280595 H 0.0 **** 0.06
21915 H 66.95095123462565 57.294359615503176 35.36892615936688 H 0.0 **** 0.06
21916 C 46.743858871372595 37.677045517773024 105.79058939467475 C 0.0 **** -0.24
21917 H 47.34794585023269 38.20872315600144 106.52556447040038 H 0.0 **** 0.06
21918 H 47.127201986348666 36.66340096840662 105.67093827472814 H 0.0 **** 0.06
21919 H 46.79277566597568 38.19960476355146 104.83525199211743 H 0.0 **** 0.06
21920 H 45.70938322951122 37.636741668300886 106.12995828983762 H 0.0 **** 0.06
21921 C 106.06599422523098 90.62178440758123 39.08855784610206 C 0.0 **** -0.24
21922 H 107.1423138224919 90.50249772083157 38.96530052405596 H 0.0 **** 0.06
21923 H 105.60158030462921 90.75117807930471 38.11086639729612 H 0.0 **** 0.06
21924 H 105.8654703424886 91.49749564197467 39.70550075430204 H 0.0 **** 0.06
21925 H 105.65550799199923 89.7348056661769 39.571641030404834 H 0.0 **** 0.06
21926 C 25.690738671556403 29.49014987381372 99.47127704471345 C 0.0 **** -0.24
21927 H 24.771911287117575 28.975912964283168 99.75496749192874 H 0.0 **** 0.06
21928 H 26.516024432462558 29.12251461755369 100.08121418127729 H 0.0 **** 0.06
21929 H 25.56966353750917 30.561554984533814 99.62972717820767 H 0.0 **** 0.06
21930 H 25.90252247896734 29.299745727102163 98.4187346470978 H 0.0 **** 0.06
21931 C 112.44801790872943 63.27185987971339 14.118388374630797 C 0.0 **** -0.24
21932 H 113.05838020929394 62.37037728541435 14.184453871128397 H 0.0 **** 0.06
21933 H 113.0971711941749 64.1469406310218 14.077250749720065 H 0.0 **** 0.06
21934 H 111.80278889387714 63.33818148212572 14.99458044942952 H 0.0 **** 0.06
21935 H 111.83524113893475 63.23061852550316 13.218255433742144 H 0.0 **** 0.06
21936 C 46.964669093630164 64.69850460019222 104.65102094449091 C 0.0 **** -0.24
21937 H 47.2650332124455 63.873544986463486 105.29698270622106 H 0.0 **** 0.06
21938 H 46.82798434420499 65.59829616999215 105.25180380582154 H 0.0 **** 0.06
21939 H 46.02834497327498 64.44852036759454 104.15339405649209 H 0.0 **** 0.06
21940 H 47.738240419660826 64.87467136471653 103.90366745588048 H 0.0 **** 0.06
21941 C 55.3682981718548 110.7281280770621 65.3228075672167 C 0.0 **** -0.24
21942 H 55.91129138533603 111.64582127359094 65.0955782390102 H 0.0 **** 0.06
21943 H 55.88367475869046 109.8795485989533 64.87158757386982 H 0.0 **** 0.06
21944 H 54.357644152874286 110.79599885816927 64.92009726671219 H 0.0 **** 0.06
21945 H 55.32001811454904 110.59155144485203 66.40324934845626 H 0.0 **** 0.06
21946 C 40.82268378758329 79.73971733614292 33.8499728701708 C 0.0 **** -0.24
21947 H 41.57891671071815 79.3166722729434 34.51022670989431 H 0.0 **** 0.06
21948 H 40.46100250492577 80.68066822523835 34.26609871303364 H 0.0 **** 0.06
21949 H 39.99148897418843 79.04141881396396 33.754679139417306 H 0.0 **** 0.06
21950 H 41.259030012399705 79.92173846686967 32.867383483643636 H 0.0 **** 0.06
21951 C 12.703325046091582 51.61013004046089 46.383350193159146 C 0.0 **** -0.24
21952 H 12.279604440103721 50.87231235848242 45.70179424917975 H 0.0 **** 0.06
21953 H 12.238467197206901 51.50842910557941 47.363294369541975 H 0.0 **** 0.06
21954 H 12.519210691698344 52.611540038227986 45.994205627356855 H 0.0 **** 0.06
21955 H 13.777943474455974 51.44805007763432 46.47160512424531 H 0.0 **** 0.06
21956 C 17.156758810920508 63.83253838403707 17.58613634111245 C 0.0 **** -0.24
21957 H 17.48141567180093 64.75863159527694 17.11048633769542 H 0.0 **** 0.06
21958 H 17.03329809180414 63.05938008833973 16.8272382458141 H 0.0 **** 0.06
21959 H 16.206402577468367 63.99897362915947 18.093719765102094 H 0.0 **** 0.06
21960 H 17.905883416375843 63.51529314254666 18.31123448759118 H 0.0 **** 0.06
21961 C 41.10298589539059 45.828093791784994 73.27434857937865 C 0.0 **** -0.24
21962 H 40.62123751191041 46.70522944557786 72.84125948635818 H 0.0 **** 0.06
21963 H 40.34082083169881 45.12411519051287 73.60850889468631 H 0.0 **** 0.06
21964 H 41.71568738151848 46.13238733734735 74.12270043597863 H 0.0 **** 0.06
21965 H 41.73272049584057 45.351416493250184 72.52313113017459 H 0.0 **** 0.06
21966 C 51.06066322229181 2.7644048957842084 100.68988325792296 C 0.0 **** -0.24
21967 H 50.829881606355656 1.9437337614626138 100.01075860324394 H 0.0 **** 0.06
21968 H 50.40716535598375 2.707886885714542 101.56098708610449 H 0.0 **** 0.06
21969 H 50.903959978043616 3.7146416297564873 100.17853321780643 H 0.0 **** 0.06
21970 H 52.099820759176595 2.6900756169092084 101.00909211144668 H 0.0 **** 0.06
21971 C 83.23151232403171 38.49138346801632 32.460520057003066 C 0.0 **** -0.24
21972 H 83.29235469231685 39.57636431726277 32.37788042064449 H 0.0 **** 0.06
21973 H 82.31896140012867 38.140638165377055 31.977501247492 H 0.0 **** 0.06
21974 H 83.21810434079691 38.20844566386597 33.51322610001495 H 0.0 **** 0.06
21975 H 84.09726042883446 38.04126589101273 31.974958585086597 H 0.0 **** 0.06
21976 C 9.053588561446638 44.17045911058576 84.60915086424654 C 0.0 **** -0.24
21977 H 8.34107488807204 44.99057930245863 84.52707991139422 H 0.0 **** 0.06
21978 H 9.130122433871055 43.659425891579836 83.64904293976164 H 0.0 **** 0.06
21979 H 8.713272730561687 43.4684631850562 85.36955164677019 H 0.0 **** 0.06
21980 H 10.030032502225268 44.56458474055329 84.89022339693719 H 0.0 **** 0.06
21981 C 79.71451578453002 61.815771944402854 73.21293870083912 C 0.0 **** -0.24
21982 H 78.73904050982694 61.98574587598978 72.75637384604727 H 0.0 **** 0.06
21983 H 79.9095465289152 60.7446137968675 73.26484054484169 H 0.0 **** 0.06
21984 H 79.72150460412394 62.23632498517662 74.21904054813339 H 0.0 **** 0.06
21985 H 80.48544489660301 62.29772348861803 72.6131950247972 H 0.0 **** 0.06
21986 C 4.141680069264607 98.56123231366823 109.84281035205873 C 0.0 **** -0.24
21987 H 3.9413906202646167 98.39707238768935 110.90154318773892 H 0.0 **** 0.06
21988 H 3.9761832039968166 97.63429729942496 109.29406376772758 H 0.0 **** 0.06
21989 H 5.175981883304772 98.88031205156642 109.71528218614964 H 0.0 **** 0.06
21990 H 3.473424988778433 99.33379395011289 109.46272585944362 H 0.0 **** 0.06
21991 C 34.52963759420178 105.06211205799963 28.431146185642035 C 0.0 **** -0.24
21992 H 35.049891913566704 104.58051833872861 27.60404194810502 H 0.0 **** 0.06
21993 H 33.90572776428801 104.32844031984666 28.943234041124924 H 0.0 **** 0.06
21994 H 33.90307174207654 105.8668140911461 28.046867091307035 H 0.0 **** 0.06
21995 H 35.25851973543565 105.47119487690256 29.130321130328127 H 0.0 **** 0.06
21996 C 21.96429151410154 84.42182417269379 18.221815089718376 C 0.0 **** -0.24
21997 H 20.96948283208136 84.04932740892752 18.47026736866016 H 0.0 **** 0.06
21998 H 21.982011358024582 85.50655686516996 18.32783191788539 H 0.0 **** 0.06
21999 H 22.206576116407145 84.15202758164952 17.194399652820266 H 0.0 **** 0.06
22000 H 22.696919750068446 83.9781804938969 18.896439249722334 H 0.0 **** 0.06
22001 C 1.9838445880621975 99.18259411697852 29.02661786280032 C 0.0 **** -0.24
22002 H 2.9880502773746684 99.51966291534711 28.767963310607172 H 0.0 **** 0.06
22003 H 1.4486126538532744 99.98807527042882 29.528085087679642 H 0.0 **** 0.06
22004 H 2.051138458728218 98.32106359600121 29.691860176820114 H 0.0 **** 0.06
22005 H 1.4507097220668186 98.90011394844342 28.11879258088271 H 0.0 **** 0.06
22006 C 91.2040393196036 35.07728685059456 18.762734651008795 C 0.0 **** -0.24
22007 H 90.71390557257354 34.841861690235106 19.707101866126372 H 0.0 **** 0.06
22008 H 90.95528400698367 36.097351538566784 18.469075958171672 H 0.0 **** 0.06
22009 H 90.86372712447178 34.38371523982232 17.994294311098667 H 0.0 **** 0.06
22010 H 92.28389431216044 34.98603857803765 18.88170752297008 H 0.0 **** 0.06
22011 C 22.353296428851962 15.157274478905947 26.446789445986724 C 0.0 **** -0.24
22012 H 22.998674894751815 14.278311455204516 26.445284168013075 H 0.0 **** 0.06
22013 H 21.366493481479935 14.882761264416501 26.82133061117463 H 0.0 **** 0.06
22014 H 22.262486796442786 15.542724332318016 25.430651825557447 H 0.0 **** 0.06
22015 H 22.785795349308444 15.92504366531324 27.088525952630278 H 0.0 **** 0.06
22016 C 63.72613157516372 18.251960657239493 17.7682012542316 C 0.0 **** -0.24
22017 H 63.52621861909975 17.37693642724092 18.386001326831234 H 0.0 **** 0.06
22018 H 64.00096728370323 17.931733718408665 16.76274281934016 H 0.0 **** 0.06
22019 H 64.54490277678664 18.825345340774035 18.20272891224485 H 0.0 **** 0.06
22020 H 62.8326256128135 18.87410308564509 17.719957683566776 H 0.0 **** 0.06
22021 C 25.388761516968117 62.21459893697829 34.44258243826085 C 0.0 **** -0.24
22022 H 25.603098399829605 62.717910986169954 35.385298325277205 H 0.0 **** 0.06
22023 H 24.84672616650593 61.289391366505924 34.63946368977669 H 0.0 **** 0.06
22024 H 26.324755205644635 61.98661497185623 33.9321221297633 H 0.0 **** 0.06
22025 H 24.78112175849685 62.865728021387895 33.81335078885763 H 0.0 **** 0.06
22026 C 107.71629660043814 21.453421985368834 17.493774958171286 C 0.0 **** -0.24
22027 H 107.77930956803706 20.616148993393665 18.18926249005949 H 0.0 **** 0.06
22028 H 108.48607491413472 22.18563724342252 17.736055150471714 H 0.0 **** 0.06
22029 H 106.73348209501012 21.918426262902102 17.57405738507913 H 0.0 **** 0.06
22030 H 107.86540903163805 21.092186421357752 16.47643829030511 H 0.0 **** 0.06
22031 C 79.99647261568987 105.11144257338097 97.10549857367027 C 0.0 **** -0.24
22032 H 80.36489533761642 104.12499543132057 97.38639407106336 H 0.0 **** 0.06
22033 H 79.89256844107055 105.72755108595999 97.99878453386586 H 0.0 **** 0.06
22034 H 79.02703339286955 105.01213595852573 96.61664236673789 H 0.0 **** 0.06
22035 H 80.70232778116164 105.58130602123049 96.41989194372809 H 0.0 **** 0.06
22036 C 79.625786583826 13.98756548056383 47.573600464058586 C 0.0 **** -0.24
22037 H 78.71905765993998 13.581491849081772 48.021309519299905 H 0.0 **** 0.06
22038 H 80.47975251636271 13.75564716039355 48.20981397462229 H 0.0 **** 0.06
22039 H 79.52890646316709 15.0686633998219 47.47435785797643 H 0.0 **** 0.06
22040 H 79.77474204259917 13.543466361180208 46.58965596316604 H 0.0 **** 0.06
22041 C 57.5415351507188 44.806276462012335 91.04150852185992 C 0.0 **** -0.24
22042 H 57.169066281356606 44.5356684732221 92.02918700698473 H 0.0 **** 0.06
22043 H 57.88395136240274 43.909503781701375 90.52455929683848 H 0.0 **** 0.06
22044 H 58.371706897119395 45.505355692314495 91.14555998427772 H 0.0 **** 0.06
22045 H 56.74151450139351 45.27372701132538 90.46785314989975 H 0.0 **** 0.06
22046 C 69.9862602256002 36.04463049960418 49.0708991814688 C 0.0 **** -0.24
22047 H 69.747432039508 37.04744209302771 48.71715696269467 H 0.0 **** 0.06
22048 H 70.40357859652991 36.104663657101014 50.076791846193316 H 0.0 **** 0.06
22049 H 70.71516690511231 35.586806819527226 48.40142538936732 H 0.0 **** 0.06
22050 H 69.07972839370515 35.44024851415497 49.08958027000588 H 0.0 **** 0.06
22051 C 22.84919928359713 37.98812434711388 74.05090089152509 C 0.0 **** -0.24
22052 H 23.078581346525006 38.80742574557863 73.36996137546907 H 0.0 **** 0.06
22053 H 21.834748255950643 37.6341656768619 73.86534770792633 H 0.0 **** 0.06
22054 H 22.930232348341782 38.33799590318151 75.0804445548726 H 0.0 **** 0.06
22055 H 23.55453089462916 37.17260496479474 73.88832759419915 H 0.0 **** 0.06
22056 C 34.421014311320185 61.25764645044662 101.11246282011285 C 0.0 **** -0.24
22057 H 33.82772672023272 61.777300183873244 101.86549366834495 H 0.0 **** 0.06
22058 H 34.418502624952396 60.18773464757984 101.32294333808264 H 0.0 **** 0.06
22059 H 35.444715474355206 61.630678637486405 101.13626325972314 H 0.0 **** 0.06
22060 H 33.99253921205518 61.434582208242766 100.12641092338566 H 0.0 **** 0.06
22061 C 23.76796706321261 50.49264895434345 90.69410282098286 C 0.0 **** -0.24
22062 H 22.819204438541647 50.678553625933375 91.19694620884349 H 0.0 **** 0.06
22063 H 24.052995167839242 51.37288673907696 90.11803773795387 H 0.0 **** 0.06
22064 H 23.661859964287004 49.63897246882078 90.02392570055315 H 0.0 **** 0.06
22065 H 24.53660469191388 50.279121993514735 91.43594439530682 H 0.0 **** 0.06
22066 C 57.39781014984561 86.98070073558131 29.297241330705894 C 0.0 **** -0.24
22067 H 57.26799264098193 88.02853984821238 29.567789242481282 H 0.0 **** 0.06
22068 H 57.97530410261925 86.47476564243726 30.071001622708017 H 0.0 **** 0.06
22069 H 57.92560003066501 86.91334893374545 28.346677781116767 H 0.0 **** 0.06
22070 H 56.42016539757884 86.50665106883429 29.203543461596198 H 0.0 **** 0.06
22071 C 22.539818876491754 95.62926762183298 100.20919869616051 C 0.0 **** -0.24
22072 H 21.530642019173648 95.29755288136954 100.452737095928 H 0.0 **** 0.06
22073 H 22.508498964137388 96.27742797197362 99.33393545649113 H 0.0 **** 0.06
22074 H 23.165743196787318 94.76205514911774 99.99800006542011 H 0.0 **** 0.06
22075 H 22.954797308485624 96.17897999362089 101.05405180902565 H 0.0 **** 0.06
22076 C 71.52784984273171 14.314483803873884 52.76638980569633 C 0.0 **** -0.24
22077 H 70.70267004121041 14.085729724498322 52.091165029367914 H 0.0 **** 0.06
22078 H 72.43344499771837 14.489459763267348 52.18520530738073 H 0.0 **** 0.06
22079 H 71.68547030590759 13.475068108403093 53.443797853467416 H 0.0 **** 0.06
22080 H 71.28750677664237 15.207000925745945 53.34359681608095 H 0.0 **** 0.06
22081 C 79.54828819334438 65.5002413276735 5.419817819991067 C 0.0 **** -0.24
22082 H 79.46414510043894 64.46318997777689 5.095506264208026 H 0.0 **** 0.06
22083 H 80.57154660108773 65.84591436754624 5.267452971936322 H 0.0 **** 0.06
22084 H 79.29457765901213 65.5713891121419 6.477428106926922 H 0.0 **** 0.06
22085 H 78.86430276433043 66.11917870641037 4.839443800163707 H 0.0 **** 0.06
22086 C 24.915485346839 77.4331654282208 92.861286735524 C 0.0 **** -0.24
22087 H 25.131992139148885 76.37814754558352 93.02620668234886 H 0.0 **** 0.06
22088 H 24.976981035423115 77.65457157648439 91.79495129546206 H 0.0 **** 0.06
22089 H 25.6400306727369 78.04173828832347 93.40220419976401 H 0.0 **** 0.06
22090 H 23.911306221061494 77.65858452475695 93.22134385061645 H 0.0 **** 0.06
22091 C 105.20606913220033 33.89790146731983 116.13855485173546 C 0.0 **** -0.24
22092 H 104.1518914176904 33.6495530328705 116.01554684252062 H 0.0 **** 0.06
22093 H 105.55528392064409 33.52933469069043 117.10353007561179 H 0.0 **** 0.06
22094 H 105.33239743786561 34.979754614957045 116.09441294739167 H 0.0 **** 0.06
22095 H 105.78418510908608 33.431857981564434 115.34001617826029 H 0.0 **** 0.06
22096 C 71.82992158089579 56.92959727257813 16.56699888348723 C 0.0 **** -0.24
22097 H 72.77434977521557 56.79550434018295 16.040614065787878 H 0.0 **** 0.06
22098 H 71.71201310481658 56.14093381924119 17.31023715562472 H 0.0 **** 0.06
22099 H 71.00700381300433 56.88194960026507 15.85351823189194 H 0.0 **** 0.06
22100 H 71.8254737841186 57.900415499863605 17.0625710333577 H 0.0 **** 0.06
22101 C 34.496634800624975 38.060107940961004 87.51879171194366 C 0.0 **** -0.24
22102 H 34.22675380397865 37.598626158334014 88.46889349814097 H 0.0 **** 0.06
22103 H 34.976083223892005 37.318976260998724 86.87859512957289 H 0.0 **** 0.06
22104 H 35.185382055056266 38.88530441568898 87.69845956538018 H 0.0 **** 0.06
22105 H 33.59803939468131 38.43626184631171 87.02978956029756 H 0.0 **** 0.06
22106 C 114.91683659445926 93.73119472174884 24.211039431152216 C 0.0 **** -0.24
22107 H 115.90422202288704 93.59877847049412 24.653228887262173 H 0.0 **** 0.06
22108 H 114.19161474364466 93.94095793398327 24.998053600974117 H 0.0 **** 0.06
22109 H 114.62986144216046 92.82095396548974 23.684507762248415 H 0.0 **** 0.06
22110 H 114.94286808646689 94.56473444251665 23.508675206326075 H 0.0 **** 0.06
22111 C 41.72502318907589 27.7617892738281 41.771758400041335 C 0.0 **** -0.24
22112 H 41.20654479759123 28.25557315843298 40.94976496054858 H 0.0 **** 0.06
22113 H 41.025249668834014 27.120328535521367 42.307608865951636 H 0.0 **** 0.06
22114 H 42.12492394667274 28.513422560706232 42.452619895092994 H 0.0 **** 0.06
22115 H 42.541337725597536 27.158902168375192 41.376197810707765 H 0.0 **** 0.06
22116 C 22.746584650324273 111.00912002499811 53.134649246917746 C 0.0 **** -0.24
22117 H 22.125134008857554 111.82949924223064 52.77663169397428 H 0.0 **** 0.06
22118 H 23.600937586744237 111.41246027223735 53.679915585966356 H 0.0 **** 0.06
22119 H 23.09896540417669 110.42327159649011 52.28620776864365 H 0.0 **** 0.06
22120 H 22.1604111927628 110.37173834414699 53.797564709545654 H 0.0 **** 0.06
22121 C 32.95007968301513 104.84267034248512 112.16462843697624 C 0.0 **** -0.24
22122 H 33.84697933826391 104.23170250339922 112.27190817716382 H 0.0 **** 0.06
22123 H 32.32077448351123 104.72026555379932 113.04615643008603 H 0.0 **** 0.06
22124 H 32.39965399776804 104.52663809022687 111.27888710474733 H 0.0 **** 0.06
22125 H 33.23374905470365 105.89017923488385 112.06286706461567 H 0.0 **** 0.06
22126 C 110.11318079586796 50.37368794208044 76.24921426640879 C 0.0 **** -0.24
22127 H 110.5547450895237 51.09547768878508 75.56223239350754 H 0.0 **** 0.06
22128 H 110.35666323738872 50.65359384060491 77.27485194289272 H 0.0 **** 0.06
22129 H 110.51136075098358 49.38165712232387 76.03899991720039 H 0.0 **** 0.06
22130 H 109.03125836923996 50.36570931500279 76.1219794530806 H 0.0 **** 0.06
22131 C 2.321300109812114 67.89417349991697 97.73398644529706 C 0.0 **** -0.24
22132 H 1.55475557534146 67.1263889987473 97.83667031866753 H 0.0 **** 0.06
22133 H 2.8546113444507455 68.00318226827332 98.67877839775937 H 0.0 **** 0.06
22134 H 1.8512774056105172 68.84249312258541 97.47116675335701 H 0.0 **** 0.06
22135 H 3.02170304658614 67.60627961233698 96.95110184168033 H 0.0 **** 0.06
22136 C 95.84830287541902 66.30153209666861 18.632653520218696 C 0.0 **** -0.24
22137 H 95.6204635816934 67.32358767226097 18.93600191861549 H 0.0 **** 0.06
22138 H 94.96316605962767 65.85140468333222 18.181964311631873 H 0.0 **** 0.06
22139 H 96.14781119501353 65.72149772054311 19.504854980133132 H 0.0 **** 0.06
22140 H 96.66051010001448 66.3116927604068 17.90600660684686 H 0.0 **** 0.06
22141 C 25.484677100247424 76.16217330479 99.51416562957488 C 0.0 **** -0.24
22142 H 25.620339653466075 75.47232317340115 98.68107376730302 H 0.0 **** 0.06
22143 H 25.84096494715928 77.15164609551053 99.22782644423566 H 0.0 **** 0.06
22144 H 26.049794455861587 75.80722275484814 100.37659656080368 H 0.0 **** 0.06
22145 H 24.42682585535681 76.2172093280345 99.77171439589796 H 0.0 **** 0.06
22146 C 51.47658253669646 1.07676202382072 75.90609787954796 C 0.0 **** -0.24
22147 H 50.75651865185533 1.8827069412710102 76.05025197418055 H 0.0 **** 0.06
22148 H 50.96305166284072 0.11701006011671211 75.96233641632821 H 0.0 **** 0.06
22149 H 52.23937876564498 1.128063921841246 76.68220710085453 H 0.0 **** 0.06
22150 H 51.94714902829457 1.1818068226269816 74.92801588117402 H 0.0 **** 0.06
22151 C 35.37420459999265 32.88809898818553 74.08775987112054 C 0.0 **** -0.24
22152 H 35.09623171790349 32.988801015463224 75.13670826085652 H 0.0 **** 0.06
22153 H 34.675467380532666 33.45464139157758 73.47175045086152 H 0.0 **** 0.06
22154 H 35.33946095653479 31.836162641814553 73.80319984291006 H 0.0 **** 0.06
22155 H 36.3828689521839 33.271492969673204 73.94011253089195 H 0.0 **** 0.06
22156 C 75.57860168225673 14.620658202865343 97.62447526515888 C 0.0 **** -0.24
22157 H 75.04362162165165 15.419101400789543 97.10824519339258 H 0.0 **** 0.06
22158 H 76.01311863941916 15.011517486895059 98.54479783393629 H 0.0 **** 0.06
22159 H 76.37202610679137 14.241216386152303 96.98063665567713 H 0.0 **** 0.06
22160 H 74.88575867037346 13.814585060598688 97.86164418877763 H 0.0 **** 0.06
22161 C 103.46962365566569 76.92651124791894 111.24032169715633 C 0.0 **** -0.24
22162 H 103.26696477303352 76.84550500353089 112.30873079253473 H 0.0 **** 0.06
22163 H 104.26976857373336 76.23806892972254 110.96947336117913 H 0.0 **** 0.06
22164 H 103.7724933293863 77.94710622287948 111.00518671870745 H 0.0 **** 0.06
22165 H 102.56883006987141 76.67664181260443 110.6799399184016 H 0.0 **** 0.06
22166 C 50.14550196873408 84.0425035312945 86.05408286041467 C 0.0 **** -0.24
22167 H 49.666022710215394 84.0321797309717 87.03284770566154 H 0.0 **** 0.06
22168 H 49.58326819318158 83.40942565252041 85.36809443960243 H 0.0 **** 0.06
22169 H 51.16470997480983 83.66543598699334 86.14537769437675 H 0.0 **** 0.06
22170 H 50.1682494067166 85.063503500378 85.67217026808896 H 0.0 **** 0.06
22171 C 101.56071159839613 111.79721891388927 95.02237524534911 C 0.0 **** -0.24
22172 H 100.92455080960622 112.63420158950727 94.73514885468612 H 0.0 **** 0.06
22173 H 102.5150615038875 112.176137250524 95.38976576462935 H 0.0 **** 0.06
22174 H 101.73144628596458 111.1574463958795 94.15683475952255 H 0.0 **** 0.06
22175 H 101.07138778242108 111.22253141842296 95.80941407239399 H 0.0 **** 0.06
22176 C 100.81670376366665 48.044822611423996 109.41264020036701 C 0.0 **** -0.24
22177 H 101.16253481838098 47.01146543973897 109.41615696986003 H 0.0 **** 0.06
22178 H 101.04181220591963 48.498980240596154 108.44738860725809 H 0.0 **** 0.06
22179 H 101.32102283856833 48.599275999689695 110.2028579986867 H 0.0 **** 0.06
22180 H 99.74018962914619 48.0673001416921 109.58302701500298 H 0.0 **** 0.06
22181 C 97.8188278277818 77.3813202796529 79.67898442098027 C 0.0 **** -0.24
22182 H 98.47900838001931 76.91028338171387 78.94998750066773 H 0.0 **** 0.06
22183 H 98.41728049408991 77.84389960442883 80.46465446612203 H 0.0 **** 0.06
22184 H 97.16473412736329 76.62745541689597 80.11647240532207 H 0.0 **** 0.06
22185 H 97.21638928983486 78.1429325675353 79.18453719148775 H 0.0 **** 0.06
22186 C 117.92381472759189 95.31462269661611 42.672631702245965 C 0.0 **** -0.24
22187 H 118.08678287201013 94.78965639187876 43.614156721659455 H 0.0 **** 0.06
22188 H 118.1903687015323 96.36492323401663 42.79135970925307 H 0.0 **** 0.06
22189 H 116.87409686708969 95.23563158256471 42.38966281126113 H 0.0 **** 0.06
22190 H 118.54414934852315 94.86687790129605 41.89547457942405 H 0.0 **** 0.06
22191 C 17.98938072372937 44.49662925648147 17.05676334705879 C 0.0 **** -0.24
22192 H 17.187964762158572 45.086620564608154 17.502062475819656 H 0.0 **** 0.06
22193 H 18.948137474223543 44.82505208456905 17.460391417462034 H 0.0 **** 0.06
22194 H 17.983313404124615 44.63182685406818 15.975943624886185 H 0.0 **** 0.06
22195 H 17.83800014356416 43.44255938408031 17.291783044810103 H 0.0 **** 0.06
22196 C 5.419749594948593 13.45900220996674 52.797173397164556 C 0.0 **** -0.24
22197 H 5.863702865549069 12.542151651964048 52.40969423356046 H 0.0 **** 0.06
22198 H 4.334493073495558 13.397813170289425 52.718194074271025 H 0.0 **** 0.06
22199 H 5.779687748434567 14.308702601529404 52.21823276253281 H 0.0 **** 0.06
22200 H 5.701926572593262 13.585032134876116 53.84266429011706 H 0.0 **** 0.06
22201 C 92.4875719453317 56.40082266455686 37.86168965381472 C 0.0 **** -0.24
22202 H 92.6701545727617 56.16787234087122 38.91029646572059 H 0.0 **** 0.06
22203 H 91.94391888714114 55.57888077982519 37.39661716393027 H 0.0 **** 0.06
22204 H 93.4407538999514 56.54157571857743 37.35020610716947 H 0.0 **** 0.06
22205 H 91.89826195244237 57.31488552119492 37.79002107125075 H 0.0 **** 0.06
22206 C 32.56211060651168 76.10035441270534 51.77311949216727 C 0.0 **** -0.24
22207 H 32.871473287208914 76.68010629372594 50.902500656767245 H 0.0 **** 0.06
22208 H 33.42856513647888 75.59099599764363 52.19646592050435 H 0.0 **** 0.06
22209 H 31.818286792936703 75.36324116111606 51.47227950137099 H 0.0 **** 0.06
22210 H 32.13210927037477 76.76802357211253 52.51919942609861 H 0.0 **** 0.06
22211 C 61.38448385281597 38.86835902952986 18.92482700441218 C 0.0 **** -0.24
22212 H 61.91295412045658 37.91501451212617 18.90818382619227 H 0.0 **** 0.06
22213 H 61.32880501313232 39.23471516181771 19.950469577692928 H 0.0 **** 0.06
22214 H 60.37717807807068 38.73229117194322 18.531187340223653 H 0.0 **** 0.06
22215 H 61.92039885415132 39.591287958855034 18.30931869608375 H 0.0 **** 0.06
22216 C 48.011490810647686 1.2862974844333621 36.885325085754545 C 0.0 **** -0.24
22217 H 48.89564442695976 0.7185672286663021 36.598251554599244 H 0.0 **** 0.06
22218 H 47.3002920622769 1.2930133893495395 36.05913392993287 H 0.0 **** 0.06
22219 H 48.29829004678457 2.3099591760490625 37.12585263498664 H 0.0 **** 0.06
22220 H 47.550013462430805 0.8234840480306502 37.75811715576458 H 0.0 **** 0.06
22221 C 110.77566989862343 56.63875188533343 63.83184928589179 C 0.0 **** -0.24
22222 H 110.1674234975752 56.37781243330411 62.966412156648175 H 0.0 **** 0.06
22223 H 110.59661232975762 55.91985346124262 64.63244850746304 H 0.0 **** 0.06
22224 H 110.5107481193069 57.63872446345085 64.17531233000949 H 0.0 **** 0.06
22225 H 111.83029007903716 56.61792939996901 63.55456359777219 H 0.0 **** 0.06
22226 C 113.3432882452174 44.91048243979853 48.067921823881406 C 0.0 **** -0.24
22227 H 113.51122431559034 45.82309120551827 48.63911201999993 H 0.0 **** 0.06
22228 H 114.26865939394914 44.33483738606289 48.0238461232889 H 0.0 **** 0.06
22229 H 113.02656836003139 45.166572656376374 47.0569945907099 H 0.0 **** 0.06
22230 H 112.56829812092718 44.31586712043324 48.55184073569744 H 0.0 **** 0.06
22231 C 0.02607555373259629 77.78982286416115 105.40475329071472 C 0.0 **** -0.24
22232 H -0.45458990728087656 78.01417593390548 106.35745998106879 H 0.0 **** 0.06
22233 H 0.16710177523347625 78.71328108831173 104.84250946274773 H 0.0 **** 0.06
22234 H -0.6033294529615034 77.10798054159036 104.83268426794666 H 0.0 **** 0.06
22235 H 0.9941437487253353 77.32274418911436 105.58770708454318 H 0.0 **** 0.06
22236 C 5.9301602037887164 87.5588196375767 95.99194194190287 C 0.0 **** -0.24
22237 H 5.04259567711722 86.93847289129846 95.86706320051337 H 0.0 **** 0.06
22238 H 5.628032567040009 88.58078086489556 96.22590955993513 H 0.0 **** 0.06
22239 H 6.510329027767909 87.55307609403599 95.06985482852878 H 0.0 **** 0.06
22240 H 6.536471911948752 87.16377926666212 96.80667119090435 H 0.0 **** 0.06
22241 C 99.73207584224772 81.91619495054886 76.01971957707633 C 0.0 **** -0.24
22242 H 100.1831967274399 82.89618141686731 76.1781717591511 H 0.0 **** 0.06
22243 H 100.49537899355099 81.21747163985145 75.67622336683507 H 0.0 **** 0.06
22244 H 98.94623873314907 81.99553408399115 75.26828832179905 H 0.0 **** 0.06
22245 H 99.30511564010146 81.55811247027677 76.95612517810872 H 0.0 **** 0.06
22246 C 31.431310588396684 10.70660186051495 115.23929012894261 C 0.0 **** -0.24
22247 H 30.584351921921098 10.06754978995869 115.49065457540138 H 0.0 **** 0.06
22248 H 31.974014050229243 10.963333422426018 116.15065262415348 H 0.0 **** 0.06
22249 H 31.069781790522256 11.617262621991244 114.76311117519761 H 0.0 **** 0.06
22250 H 32.09578299330866 10.177283067564161 114.55713798669768 H 0.0 **** 0.06
22251 C 9.91066972551797 57.15481724823172 19.980266058394918 C 0.0 **** -0.24
22252 H 10.77216694973264 56.75545674374598 19.445006968588828 H 0.0 **** 0.06
22253 H 10.251405536970005 57.72455313208002 20.844890664110096 H 0.0 **** 0.06
22254 H 9.27694521916898 56.332965242456794 20.312588287193734 H 0.0 **** 0.06
22255 H 9.342002561524556 57.80665542799238 19.316377312322174 H 0.0 **** 0.06
22256 C 105.4156496995976 56.06501006412265 87.4331873391516 C 0.0 **** -0.24
22257 H 105.67266093626446 55.01397705846146 87.56447102492726 H 0.0 **** 0.06
22258 H 104.34677679708739 56.15585401782254 87.23533444402372 H 0.0 **** 0.06
22259 H 105.97728960177483 56.47424311691393 86.59283529591494 H 0.0 **** 0.06
22260 H 105.66587146326341 56.61596606329268 88.34010859174052 H 0.0 **** 0.06
22261 C 108.15237197877948 60.00895954476226 8.922400554261529 C 0.0 **** -0.24
22262 H 107.44489651641229 59.65743454234308 8.170589219652342 H 0.0 **** 0.06
22263 H 107.80840860424644 60.962438114650524 9.326043360635168 H 0.0 **** 0.06
22264 H 109.1327254548259 60.139703622840216 8.465922157266547 H 0.0 **** 0.06
22265 H 108.22002891471351 59.27663878478313 9.726724118181096 H 0.0 **** 0.06
22266 C 42.235866652029074 117.83295379779753 32.81997298709839 C 0.0 **** -0.24
22267 H 42.1362704337767 116.79772100714854 33.14516399117161 H 0.0 **** 0.06
22268 H 43.26786322993502 118.0224027937445 32.52217137920727 H 0.0 **** 0.06
22269 H 41.966901227702465 118.49859218460699 33.64077550178954 H 0.0 **** 0.06
22270 H 41.574012867320846 118.01389444371529 31.9734745668664 H 0.0 **** 0.06
22271 C 28.60776096122288 109.28905072505742 28.181474956121207 C 0.0 **** -0.24
22272 H 29.047911633524507 108.35218096687242 28.52277687795541 H 0.0 **** 0.06
22273 H 29.38824090062309 110.0451434014405 28.09159979275924 H 0.0 **** 0.06
22274 H 27.8599696382243 109.62226515343409 28.89971637348262 H 0.0 **** 0.06
22275 H 28.13652550933739 109.13615120798309 27.21031869471051 H 0.0 **** 0.06
22276 C 118.64487751278303 2.8752605894940686 77.46890136351439 C 0.0 **** -0.24
22277 H 119.69053015991163 2.9373079440922165 77.17034125975866 H 0.0 **** 0.06
22278 H 118.06516730999265 2.4164042425982437 76.66678752246278 H 0.0 **** 0.06
22279 H 118.26286055809477 3.8768356486433753 77.66530144162653 H 0.0 **** 0.06
22280 H 118.559672411636 2.270335985001422 78.3710924888473 H 0.0 **** 0.06
22281 C 22.070412864697374 91.86828386597855 102.10168761177346 C 0.0 **** -0.24
22282 H 22.56946511756874 91.08236486147956 102.66893514088116 H 0.0 **** 0.06
22283 H 21.102241633779016 92.08415116882503 102.55585990153804 H 0.0 **** 0.06
22284 H 21.923454144480075 91.53632293540954 101.07432224547478 H 0.0 **** 0.06
22285 H 22.684687660886283 92.76821593050784 102.10918923367348 H 0.0 **** 0.06
22286 C 3.8007293011641288 115.71239554171754 60.27759554573029 C 0.0 **** -0.24
22287 H 4.629286877688887 115.1898683483119 60.75428010155659 H 0.0 **** 0.06
22288 H 3.357202265651848 116.41297890163264 60.9858655202986 H 0.0 **** 0.06
22289 H 3.048022636573343 114.98856772358977 59.96304568629412 H 0.0 **** 0.06
22290 H 4.166809091440989 116.25774760345865 59.40771607949512 H 0.0 **** 0.06
22291 C 82.94312896297254 83.28091107927756 6.100393715022928 C 0.0 **** -0.24
22292 H 82.64606545338398 83.5717902717528 5.093047644070731 H 0.0 **** 0.06
22293 H 82.15894297121127 83.55795768986329 6.804442032390607 H 0.0 **** 0.06
22294 H 83.86845738243693 83.79220559378697 6.367183608911143 H 0.0 **** 0.06
22295 H 83.09999444417338 82.20288044450496 6.136069144272085 H 0.0 **** 0.06
22296 C 103.48882497767607 12.706467387050193 13.251498880671477 C 0.0 **** -0.24
22297 H 104.3139373385118 13.195775364428314 13.76841843496922 H 0.0 **** 0.06
22298 H 103.86023464926686 11.823878332234901 12.729792983676134 H 0.0 **** 0.06
22299 H 103.04936814238081 13.396885565425531 12.53180451635859 H 0.0 **** 0.06
22300 H 102.73171423319687 12.40758791932748 13.977380436074043 H 0.0 **** 0.06
22301 C 107.07529435042326 59.83670625097546 24.99729403230863 C 0.0 **** -0.24
22302 H 107.04130498623007 60.549881944542854 24.17340159391898 H 0.0 **** 0.06
22303 H 106.074470236248 59.715214207471796 25.413454377226486 H 0.0 **** 0.06
22304 H 107.7486606913667 60.20662554836263 25.770549525953527 H 0.0 **** 0.06
22305 H 107.43559547722168 58.87496326325719 24.630953830149565 H 0.0 **** 0.06
22306 C 17.435990581247296 0.34524370714621 84.59930608286442 C 0.0 **** -0.24
22307 H 18.45662844741949 -0.031755602222460766 84.66134164743329 H 0.0 **** 0.06
22308 H 16.94029541575162 0.2105612711949334 85.56110780941083 H 0.0 **** 0.06
22309 H 16.891669586438752 -0.20128095427986636 83.82948857949964 H 0.0 **** 0.06
22310 H 17.455649166006992 1.4056367308783706 84.34566104317946 H 0.0 **** 0.06
22311 C 19.626285314901367 7.930255155120108 10.684655771217763 C 0.0 **** -0.24
22312 H 18.929207864729392 7.131823658441277 10.939937518850115 H 0.0 **** 0.06
22313 H 19.070803503837567 8.791463761332182 10.312925651119372 H 0.0 **** 0.06
22314 H 20.31340774652756 7.5800106794849 9.914233058987577 H 0.0 **** 0.06
22315 H 20.190674511968382 8.216952629936287 11.572083498151471 H 0.0 **** 0.06
22316 C 96.99088909144848 38.806698582331336 33.187145122297096 C 0.0 **** -0.24
22317 H 95.97257409187978 39.170977375336776 33.32484814525888 H 0.0 **** 0.06
22318 H 97.23301078265868 38.798484597455655 32.123618308094336 H 0.0 **** 0.06
22319 H 97.07233315442281 37.79539619690766 33.58569489988986 H 0.0 **** 0.06
22320 H 97.68501290468427 39.46146658900696 33.7128736542286 H 0.0 **** 0.06
22321 C 42.392548689062046 15.647938554894097 70.71395364365173 C 0.0 **** -0.24
22322 H 43.37288351328859 15.691649053324085 71.1881261614445 H 0.0 **** 0.06
22323 H 41.623215899626466 15.88025987599383 71.45108354857874 H 0.0 **** 0.06
22324 H 42.22604500991422 14.647123615133495 70.31681828892044 H 0.0 **** 0.06
22325 H 42.34888627581175 16.373479216230237 69.90171728138426 H 0.0 **** 0.06
22326 C 37.53249642071171 111.4918521691199 53.27369902530171 C 0.0 **** -0.24
22327 H 36.871788346339486 111.02239015029903 52.544830157067395 H 0.0 **** 0.06
22328 H 37.051953760912625 112.38389535141685 53.67715455010301 H 0.0 **** 0.06
22329 H 38.46788638395918 111.7706119847528 52.78916924115924 H 0.0 **** 0.06
22330 H 37.73641103365213 110.79091532841515 54.083419946920685 H 0.0 **** 0.06
22331 C 99.89586322274843 58.68273763201398 24.649008680204815 C 0.0 **** -0.24
22332 H 99.93762384983992 58.00248354527065 25.50024663452257 H 0.0 **** 0.06
22333 H 100.0903946442474 59.70035466022048 24.987340861231985 H 0.0 **** 0.06
22334 H 98.90641471997913 58.633217174330525 24.19357591967156 H 0.0 **** 0.06
22335 H 100.6486593134947 58.39279826349116 23.91555942265262 H 0.0 **** 0.06
22336 C 8.704698696680541 76.65679548948592 46.32938007634198 C 0.0 **** -0.24
22337 H 8.746509355589268 77.72310612426679 46.10850899209015 H 0.0 **** 0.06
22338 H 7.699254406098774 76.284053194954 46.13205149226036 H 0.0 **** 0.06
22339 H 8.95312433560251 76.49372182528919 47.37838926975138 H 0.0 **** 0.06
22340 H 9.419616173636289 76.12633676758728 45.69952677635945 H 0.0 **** 0.06
22341 C 100.71072330184427 75.38070910812718 59.70986320988951 C 0.0 **** -0.24
22342 H 100.429488198841 74.32945786398543 59.64056485674781 H 0.0 **** 0.06
22343 H 100.79657549669204 75.79889378657299 58.706755256394366 H 0.0 **** 0.06
22344 H 101.6681072341807 75.46732663295714 60.22314280906726 H 0.0 **** 0.06
22345 H 99.94860939898729 75.92395569731269 60.26705798012038 H 0.0 **** 0.06
22346 C 61.49197894806818 106.16286544654304 42.965568510791584 C 0.0 **** -0.24
22347 H 61.32592624004249 106.91580732315103 43.736593574521095 H 0.0 **** 0.06
22348 H 62.546643324356296 106.149649265204 42.691986876850564 H 0.0 **** 0.06
22349 H 60.89054627532187 106.40411368344706 42.089447193332546 H 0.0 **** 0.06
22350 H 61.20213105018999 105.18376358083043 43.346770942548005 H 0.0 **** 0.06
22351 C 83.72412725945588 69.26117949953999 83.77289417553814 C 0.0 **** -0.24
22352 H 83.12301368603832 69.4251242770099 84.66645114995165 H 0.0 **** 0.06
22353 H 83.77884013807781 68.19203309553211 83.56375752962549 H 0.0 **** 0.06
22354 H 84.72845289581508 69.65187063319945 83.93405550912249 H 0.0 **** 0.06
22355 H 83.26608997170902 69.77397443219002 82.92710178350342 H 0.0 **** 0.06
22356 C 112.66699577196692 67.35986110332297 68.94343268958954 C 0.0 **** -0.24
22357 H 112.53471983122687 68.19262556000757 68.25214038538482 H 0.0 **** 0.06
22358 H 111.87000334349247 66.63152956787201 68.79151215053884 H 0.0 **** 0.06
22359 H 112.63329237690569 67.7297122148401 69.96746428859069 H 0.0 **** 0.06
22360 H 113.63180855327687 66.88641887410864 68.75963018044533 H 0.0 **** 0.06
22361 C 29.628674211512624 29.648105430516793 4.209456387746105 C 0.0 **** -0.24
22362 H 28.543791818107614 29.612970592960863 4.114507700602095 H 0.0 **** 0.06
22363 H 29.982858351294645 28.72954542817149 4.679874102486696 H 0.0 **** 0.06
22364 H 29.91163580773963 30.50309593482595 4.823768655652712 H 0.0 **** 0.06
22365 H 30.076976800523695 29.74635236039842 3.2208877828627216 H 0.0 **** 0.06
22366 C 94.73803141402931 114.82062138343207 37.12379579288145 C 0.0 **** -0.24
22367 H 95.34303111621367 113.91411516116781 37.13983931674517 H 0.0 **** 0.06
22368 H 93.91127989553183 114.71834571627804 37.82686420662054 H 0.0 **** 0.06
22369 H 94.34520500058039 114.97819338778942 36.12000400084827 H 0.0 **** 0.06
22370 H 95.35493039180923 115.67231087707216 37.41001985348794 H 0.0 **** 0.06
22371 C 52.4351821517167 34.414333906180815 67.14453085282528 C 0.0 **** -0.24
22372 H 51.349630910915195 34.41366337150504 67.04823651595191 H 0.0 **** 0.06
22373 H 52.744483335585244 35.260929438067194 67.7587331338739 H 0.0 **** 0.06
22374 H 52.88811111522489 34.497483845847626 66.15696365685068 H 0.0 **** 0.06
22375 H 52.75843021172561 33.48614789317202 67.61528764623759 H 0.0 **** 0.06
22376 C 101.47909957327948 1.9514798772556503 62.61940959677593 C 0.0 **** -0.24
22377 H 100.84382589242824 1.0836457987894512 62.44412727403513 H 0.0 **** 0.06
22378 H 101.29101013298802 2.7012919860926417 61.85077525573954 H 0.0 **** 0.06
22379 H 102.52578133331036 1.6475609209631692 62.58303382702727 H 0.0 **** 0.06
22380 H 101.25712513848754 2.3720349426373115 63.600830214109 H 0.0 **** 0.06
22381 C 58.66052043356648 81.58365432139473 29.409826574167766 C 0.0 **** -0.24
22382 H 57.95054320965347 80.8581576891882 29.011933894864484 H 0.0 **** 0.06
22383 H 58.340443234460416 81.89567735998813 30.404257976680753 H 0.0 **** 0.06
22384 H 58.69805533056935 82.45166437422935 28.75133946754805 H 0.0 **** 0.06
22385 H 59.64927089849899 81.13031998595358 29.47061303139469 H 0.0 **** 0.06
22386 C 15.383181663985567 75.51811945164431 39.545026950439706 C 0.0 **** -0.24
22387 H 16.35145760032694 75.30248628061028 39.09159150072651 H 0.0 **** 0.06
22388 H 15.318080401656346 76.58191842948344 39.77402508123659 H 0.0 **** 0.06
22389 H 15.276376291038645 74.94141574868527 40.46380060194414 H 0.0 **** 0.06
22390 H 14.588150175237587 75.24620661652463 38.850605667040455 H 0.0 **** 0.06
22391 C 17.331080026112264 44.23939559265173 51.98298038187798 C 0.0 **** -0.24
22392 H 18.410681198989582 44.365244263399816 52.05497273193126 H 0.0 **** 0.06
22393 H 16.902991929662573 45.081722931359664 51.43969335314186 H 0.0 **** 0.06
22394 H 16.902519723083767 44.198295859911795 52.98463375538513 H 0.0 **** 0.06
22395 H 17.107002503054957 43.31328908463345 51.453513125528005 H 0.0 **** 0.06
22396 C 38.5962613106528 115.40130383314855 14.72765911270254 C 0.0 **** -0.24
22397 H 37.644282589351285 114.88463540459739 14.847833119651611 H 0.0 **** 0.06
22398 H 38.45901672440373 116.46486804190107 14.920911855651099 H 0.0 **** 0.06
22399 H 38.960292693904364 115.25987535137949 13.710386945332246 H 0.0 **** 0.06
22400 H 39.321188542133726 114.99366856517523 15.43330183767469 H 0.0 **** 0.06
22401 C 73.73004066359786 102.6258977087048 20.359025072062607 C 0.0 **** -0.24
22402 H 73.13125419712921 103.28920455249173 20.98195787569567 H 0.0 **** 0.06
22403 H 73.79191447533654 103.03237053813405 19.34929140948981 H 0.0 **** 0.06
22404 H 73.26465866573915 101.64063535859384 20.325990469560438 H 0.0 **** 0.06
22405 H 74.73209581870353 102.5400099633365 20.77860616980351 H 0.0 **** 0.06
22406 C 84.08326546136266 109.4261426584172 99.49034097908151 C 0.0 **** -0.24
22407 H 84.95638370118792 109.26727255147537 98.85682425048097 H 0.0 **** 0.06
22408 H 83.21222789027999 108.95886978484398 99.03124821735906 H 0.0 **** 0.06
22409 H 83.90564715333306 110.49524520124814 99.60256843323211 H 0.0 **** 0.06
22410 H 84.26043283838928 108.9825991314055 100.47066719582253 H 0.0 **** 0.06
22411 C 60.74234544963837 46.52348555893582 37.84792474429261 C 0.0 **** -0.24
22412 H 61.12186362743271 46.527234917648165 36.82641095034026 H 0.0 **** 0.06
22413 H 60.353455162250064 47.510532593224696 38.09460867792271 H 0.0 **** 0.06
22414 H 61.549905615213866 46.26843785174721 38.534362529277075 H 0.0 **** 0.06
22415 H 59.945015241169706 45.78568093634306 37.93651050595625 H 0.0 **** 0.06
22416 C 102.01742419626564 4.64447159533578 70.25701067949254 C 0.0 **** -0.24
22417 H 102.5725019957377 5.502390487509755 70.63481923995911 H 0.0 **** 0.06
22418 H 101.05240668974125 4.974993586929516 69.87379409473144 H 0.0 **** 0.06
22419 H 101.86277638879756 3.9278417341151446 71.0640455650612 H 0.0 **** 0.06
22420 H 102.58420516971128 4.170661004092361 69.45494679419554 H 0.0 **** 0.06
22421 C 57.99755746758686 77.28515459597685 47.522872288493886 C 0.0 **** -0.24
22422 H 58.69807563271809 76.81318558379758 48.212759379622526 H 0.0 **** 0.06
22423 H 57.54935406387946 76.52479909836288 46.88281851723207 H 0.0 **** 0.06
22424 H 58.52979106924985 78.01090074714989 46.90698061229057 H 0.0 **** 0.06
22425 H 57.21660732215611 77.79189061476029 48.08910015657807 H 0.0 **** 0.06
22426 C 17.45066343058474 118.45770324733073 4.109427904110532 C 0.0 **** -0.24
22427 H 17.659422611894485 119.45173469636994 3.7128201596732993 H 0.0 **** 0.06
22428 H 18.089535775344302 118.26925163372162 4.972121172006297 H 0.0 **** 0.06
22429 H 17.649339946387528 117.71034392915665 3.340471903007881 H 0.0 **** 0.06
22430 H 16.4053453344213 118.3991676206371 4.411338782540042 H 0.0 **** 0.06
22431 C 75.46790439640577 74.36733784002348 53.54625172333712 C 0.0 **** -0.24
22432 H 75.48956068667019 74.08402061058123 54.59866938500346 H 0.0 **** 0.06
22433 H 75.6190454628757 75.44382506376976 53.45681293974951 H 0.0 **** 0.06
22434 H 74.50187802618376 74.09941184469145 53.11733292840097 H 0.0 **** 0.06
22435 H 76.26123324636433 73.8437868496668 53.01254367738511 H 0.0 **** 0.06
22436 C 62.59075774397479 25.432684357798905 19.75067293917033 C 0.0 **** -0.24
22437 H 61.750362877944156 25.699648194465624 20.390349628837384 H 0.0 **** 0.06
22438 H 63.242718355843124 26.297435051125376 19.62723401873143 H 0.0 **** 0.06
22439 H 62.218889346294986 25.115519400346045 18.775980730951403 H 0.0 **** 0.06
22440 H 63.15123459799349 24.61697087478518 20.207856495913916 H 0.0 **** 0.06
22441 C 7.17170444072239 39.42668696200974 78.06595736279581 C 0.0 **** -0.24
22442 H 6.915441999250369 40.4506338537023 77.79430338543688 H 0.0 **** 0.06
22443 H 6.289260107167282 38.9264877340427 78.46703017063248 H 0.0 **** 0.06
22444 H 7.958948660340958 39.43665828092202 78.81979201422752 H 0.0 **** 0.06
22445 H 7.5215755095932515 38.89304581413796 77.18202469900774 H 0.0 **** 0.06
22446 C 8.282943695517968 17.481753920971244 99.75991349181385 C 0.0 **** -0.24
22447 H 7.44625554044368 16.79096606803654 99.8685583142169 H 0.0 **** 0.06
22448 H 9.201074141063174 16.99293049271529 100.08640351294031 H 0.0 **** 0.06
22449 H 8.104797439490536 18.365860050240656 100.37153739214881 H 0.0 **** 0.06
22450 H 8.377753463436957 17.77474198518337 98.71490889903549 H 0.0 **** 0.06
22451 C 73.70578797235697 3.0914058869799703 111.81885792557574 C 0.0 **** -0.24
22452 H 73.5192163532272 2.5981695588926357 112.77375196727286 H 0.0 **** 0.06
22453 H 74.06958108883231 4.102320440259376 111.99772602591517 H 0.0 **** 0.06
22454 H 72.7796684989431 3.134263056801359 111.24578066695747 H 0.0 **** 0.06
22455 H 74.45284221971724 2.5285030766729335 111.26040840098625 H 0.0 **** 0.06
22456 C 49.15310940254824 22.529474619304665 40.586309744859335 C 0.0 **** -0.24
22457 H 50.10005000973236 21.996915140110673 40.497470209613894 H 0.0 **** 0.06
22458 H 48.91630171353886 22.675668379540014 41.640170300325025 H 0.0 **** 0.06
22459 H 48.36272213230953 21.947517894818247 40.112207533961765 H 0.0 **** 0.06
22460 H 49.235682878977315 23.499090789099682 40.09399506257114 H 0.0 **** 0.06
22461 C 64.65383177284565 59.81373192408182 75.52451542922802 C 0.0 **** -0.24
22462 H 64.66704621639508 60.72069269889195 74.91849297693113 H 0.0 **** 0.06
22463 H 64.36817828541982 60.06411641253851 76.54600122947045 H 0.0 **** 0.06
22464 H 65.64639670975771 59.363037579544624 75.52432774930128 H 0.0 **** 0.06
22465 H 63.9347372106142 59.10861850955436 75.10763576964132 H 0.0 **** 0.06
22466 C 71.45374852607108 112.8281964770832 64.1868561250308 C 0.0 **** -0.24
22467 H 70.9608553771674 113.56863714480633 64.81686527644601 H 0.0 **** 0.06
22468 H 72.53504705125303 112.92941671748696 64.28692915573467 H 0.0 **** 0.06
22469 H 71.16869429450699 112.98723722114161 63.14755895231065 H 0.0 **** 0.06
22470 H 71.15191271590083 111.827342486757 64.49798968428064 H 0.0 **** 0.06
22471 C 116.71613621841006 76.28558077841495 46.38706403354136 C 0.0 **** -0.24
22472 H 117.13995784242202 75.48232350937039 46.98958917588089 H 0.0 **** 0.06
22473 H 116.87102542260534 77.23924517250828 46.8925471474499 H 0.0 **** 0.06
22474 H 115.64808491772777 76.1138753990706 46.253470438036985 H 0.0 **** 0.06
22475 H 117.20517757842725 76.30562957581242 45.41324056338752 H 0.0 **** 0.06
22476 C 103.79984719716657 102.12821193160278 111.92123145780576 C 0.0 **** -0.24
22477 H 102.8927870473367 101.99778241623898 111.33094627128051 H 0.0 **** 0.06
22478 H 103.9093400719376 103.17835607008854 112.19248813285552 H 0.0 **** 0.06
22479 H 104.66324079620966 101.81240131671282 111.33541003993597 H 0.0 **** 0.06
22480 H 103.73420451301041 101.5234037081855 112.82569573203264 H 0.0 **** 0.06
22481 C 1.6125979585742414 65.61985261793532 5.904962799061975 C 0.0 **** -0.24
22482 H 1.0926007605150687 66.21508365982478 5.1535710508088695 H 0.0 **** 0.06
22483 H 0.8837916539000474 65.16724878662887 6.5772080674286535 H 0.0 **** 0.06
22484 H 2.2840151333265055 66.26209544441357 6.474862523724553 H 0.0 **** 0.06
22485 H 2.1891997893170583 64.83713677262094 5.412274470560185 H 0.0 **** 0.06
22486 C 21.128898959204754 74.51980767487635 26.572362631130275 C 0.0 **** -0.24
22487 H 22.149048507753896 74.81213247375257 26.32216327421807 H 0.0 **** 0.06
22488 H 20.898606234258786 74.83899190567178 27.589306245376733 H 0.0 **** 0.06
22489 H 21.03304376033838 73.43685218315045 26.499344094045767 H 0.0 **** 0.06
22490 H 20.435192241553768 74.9936197639837 25.876815547248114 H 0.0 **** 0.06
22491 C 114.41403576812033 50.25925145411071 96.5286683282279 C 0.0 **** -0.24
22492 H 113.61451635123231 50.975437693662855 96.34177669707833 H 0.0 **** 0.06
22493 H 114.09918688397545 49.55627577423576 97.3009312602077 H 0.0 **** 0.06
22494 H 115.3058983475031 50.790189757636625 96.86336714641106 H 0.0 **** 0.06
22495 H 114.63735229991514 49.71591943793044 95.61136874614348 H 0.0 **** 0.06
22496 C 39.32100177467012 49.36443572948207 77.21214615277486 C 0.0 **** -0.24
22497 H 38.31726075165099 49.77868873389707 77.31012580038708 H 0.0 **** 0.06
22498 H 39.47670625350929 49.02929147198839 76.18620167514032 H 0.0 **** 0.06
22499 H 39.432944837743094 48.51985990137351 77.89160104830768 H 0.0 **** 0.06
22500 H 40.05530539320644 50.13128004727389 77.45970742364429 H 0.0 **** 0.06
22501 C 5.4369307749376645 91.28927229543277 53.923676047428174 C 0.0 **** -0.24
22502 H 4.368588238795155 91.43575635926598 53.763394304170134 H 0.0 **** 0.06
22503 H 5.6419333726975935 91.25691295820695 54.99415371171035 H 0.0 **** 0.06
22504 H 5.988679483161974 92.11466851213765 53.472982071119276 H 0.0 **** 0.06
22505 H 5.74760017204018 90.35057903751661 53.46538461350457 H 0.0 **** 0.06
22506 C 74.40891695418097 24.71838297506963 29.904059053565753 C 0.0 **** -0.24
22507 H 73.7377778970534 23.887803025450864 30.120280746385113 H 0.0 **** 0.06
22508 H 74.2136575324107 25.53425676938386 30.601042815704318 H 0.0 **** 0.06
22509 H 74.24186417514261 25.064543191013968 28.883758567996438 H 0.0 **** 0.06
22510 H 75.44187105198102 24.388990963977363 30.010446216777964 H 0.0 **** 0.06
22511 C 72.86540989917827 37.44945324119959 109.68599203615261 C 0.0 **** -0.24
22512 H 73.5316243828471 38.30566396078564 109.57335046350892 H 0.0 **** 0.06
22513 H 73.0161801063627 36.999954364376066 110.66829075173658 H 0.0 **** 0.06
22514 H 73.08312509552397 36.71473776617273 108.91116250526463 H 0.0 **** 0.06
22515 H 71.83147342996878 37.780687469458144 109.59289105733137 H 0.0 **** 0.06
22516 C 24.9884773754481 22.205606947029025 109.32999737818315 C 0.0 **** -0.24
22517 H 25.005370398289585 21.285195650299386 108.74548621660551 H 0.0 **** 0.06
22518 H 25.541647259173374 22.057023613597664 110.25734609301 H 0.0 **** 0.06
22519 H 23.95712725504029 22.471217927405917 109.55965634158656 H 0.0 **** 0.06
22520 H 25.450947495468597 23.008073562513744 108.75583951453038 H 0.0 **** 0.06
22521 C 76.56609186980057 94.7791165843515 44.5332323349634 C 0.0 **** -0.24
22522 H 77.60783798746311 94.97748287832624 44.78540968003918 H 0.0 **** 0.06
22523 H 76.44734145277675 93.72274839491112 44.287193111720825 H 0.0 **** 0.06
22524 H 76.27820721178074 95.38624077333051 43.67476729094858 H 0.0 **** 0.06
22525 H 75.93250146495751 95.02795882441677 45.38396393140155 H 0.0 **** 0.06
22526 C 31.324363368883155 115.5948428160252 47.18869236511148 C 0.0 **** -0.24
22527 H 32.19125761734165 116.25510018815905 47.17303638752816 H 0.0 **** 0.06
22528 H 30.652297526756513 115.85677898619726 46.37152927729977 H 0.0 **** 0.06
22529 H 30.801550184596152 115.70511575222753 48.13899539596605 H 0.0 **** 0.06
22530 H 31.65309198560871 114.56130647590426 47.07302564834288 H 0.0 **** 0.06
22531 C 114.83210154967243 19.255161932663015 9.674322040898687 C 0.0 **** -0.24
22532 H 115.40374938689311 20.136566927373877 9.965623566360875 H 0.0 **** 0.06
22533 H 113.84354967565513 19.56068142132952 9.330255690065655 H 0.0 **** 0.06
22534 H 114.72986285025628 18.589000075984615 10.530732674046817 H 0.0 **** 0.06
22535 H 115.35199711926346 18.735025433922488 8.870473097100444 H 0.0 **** 0.06
22536 C 91.08211631190127 37.18465746756459 73.58126092618062 C 0.0 **** -0.24
22537 H 91.67597299648088 37.16854802923845 74.49488791039946 H 0.0 **** 0.06
22538 H 90.08226755166925 36.80462703602902 73.79180051200797 H 0.0 **** 0.06
22539 H 91.55811523451175 36.556122684469045 72.82877264873238 H 0.0 **** 0.06
22540 H 91.01297651115303 38.20662583267301 73.21054428007389 H 0.0 **** 0.06
22541 C 27.641936814635883 25.876522597679184 101.80962645373285 C 0.0 **** -0.24
22542 H 28.345044253637916 26.705165626183486 101.72039484136496 H 0.0 **** 0.06
22543 H 27.444107020939988 25.46097756905209 100.82196141742807 H 0.0 **** 0.06
22544 H 26.710739274643892 26.236857569620213 102.24680652919969 H 0.0 **** 0.06
22545 H 28.068856077600998 25.104854536368975 102.45028464614649 H 0.0 **** 0.06
22546 C 23.783281242281646 47.324455333245645 105.60866633855827 C 0.0 **** -0.24
22547 H 24.653264240912875 47.91720934365275 105.89109124533394 H 0.0 **** 0.06
22548 H 23.914236905293933 46.94720400950578 104.59455904179515 H 0.0 **** 0.06
22549 H 22.889320722687557 47.94730371978622 105.65309722005577 H 0.0 **** 0.06
22550 H 23.676324911564933 46.48674543852162 106.29781221993957 H 0.0 **** 0.06
22551 C 22.751558169895155 53.08821589236683 78.61468161950236 C 0.0 **** -0.24
22552 H 22.87771208507312 52.86024586192959 79.6726595830882 H 0.0 **** 0.06
22553 H 23.03236078509316 52.21840139138675 78.02004622865326 H 0.0 **** 0.06
22554 H 23.38541854627894 53.933054318462084 78.34654623066899 H 0.0 **** 0.06
22555 H 21.708947750671104 53.33982979251889 78.41938043976367 H 0.0 **** 0.06
22556 C 74.4118367520455 109.698271826429 55.77389290454865 C 0.0 **** -0.24
22557 H 75.21648559161508 108.99866029770479 55.5482881480394 H 0.0 **** 0.06
22558 H 74.06435844604749 109.5355906552794 56.794646201678255 H 0.0 **** 0.06
22559 H 73.58727490702407 109.53893911523953 55.07876310151743 H 0.0 **** 0.06
22560 H 74.77997276545238 110.71907559023579 55.67299642445884 H 0.0 **** 0.06
22561 C 34.261662327836575 14.445057700063675 94.49978835163927 C 0.0 **** -0.24
22562 H 34.751334683778 15.01061314065526 93.70738847587029 H 0.0 **** 0.06
22563 H 35.013070887424874 14.067832896557295 95.1943538745162 H 0.0 **** 0.06
22564 H 33.71578344215834 13.608076271896696 94.06479078918778 H 0.0 **** 0.06
22565 H 33.567626368931656 15.09431748202713 95.03313942569662 H 0.0 **** 0.06
22566 C 77.99374217091668 12.229607576264357 73.14816201565995 C 0.0 **** -0.24
22567 H 77.35670248172227 11.78697906275525 73.91445376939191 H 0.0 **** 0.06
22568 H 79.00577610967238 11.833388507037824 73.24368403118794 H 0.0 **** 0.06
22569 H 78.01341745012974 13.312325608611673 73.27285813270001 H 0.0 **** 0.06
22570 H 77.59935664958243 11.984203401753234 72.16240525842144 H 0.0 **** 0.06
22571 C 51.83555242845205 56.50762204871597 98.68501809612951 C 0.0 **** -0.24
22572 H 52.6297064743253 56.15145339605061 98.02885972330904 H 0.0 **** 0.06
22573 H 50.91379656148894 56.617594837119725 98.11390018789547 H 0.0 **** 0.06
22574 H 52.11952497007735 57.47154866480844 99.1087110443346 H 0.0 **** 0.06
22575 H 51.68069727805761 55.789175901357396 99.49008181716403 H 0.0 **** 0.06
22576 C 109.24209186986101 32.18256311499954 15.61110539404919 C 0.0 **** -0.24
22577 H 108.72474044789314 32.55812070171595 16.493556828579727 H 0.0 **** 0.06
22578 H 109.72335751601582 33.011192934728115 15.090546430359694 H 0.0 **** 0.06
22579 H 108.52384331697769 31.703001898906507 14.945378962922689 H 0.0 **** 0.06
22580 H 109.99736591897306 31.45676234402407 15.914080598505791 H 0.0 **** 0.06
22581 C 68.8032597836123 34.037346326935335 83.7775670380706 C 0.0 **** -0.24
22582 H 67.85152547412446 34.11372659370829 84.30316233422269 H 0.0 **** 0.06
22583 H 68.91133685086896 33.03327310905749 83.36675452651588 H 0.0 **** 0.06
22584 H 69.61906264768231 34.234676511674195 84.474173921443 H 0.0 **** 0.06
22585 H 68.83240302134419 34.76659406717093 82.9679368896619 H 0.0 **** 0.06
22586 C 110.81566822185185 46.73116761330627 97.32753322241379 C 0.0 **** -0.24
22587 H 111.88159087528507 46.51524196455043 97.25545982309646 H 0.0 **** 0.06
22588 H 110.63467363469051 47.76754269573982 97.04317043781387 H 0.0 **** 0.06
22589 H 110.48174829440208 46.57184389674927 98.35299361915929 H 0.0 **** 0.06
22590 H 110.26532666332257 46.06899393413724 96.65918544389461 H 0.0 **** 0.06
22591 C 1.6098873386537509 116.63234520492749 118.0145854059244 C 0.0 **** -0.24
22592 H 2.536196584908243 116.41815686417453 118.54549214788096 H 0.0 **** 0.06
22593 H 1.7450020025309758 116.43227243936771 116.95085537198784 H 0.0 **** 0.06
22594 H 1.343111611349526 117.68022190603041 118.15657756922566 H 0.0 **** 0.06
22595 H 0.8131076174772662 115.99872422182492 118.40474065885704 H 0.0 **** 0.06
22596 C 39.93045977052193 66.70987557861372 7.136485282012231 C 0.0 **** -0.24
22597 H 40.81746525151973 67.18011367737591 7.561082716343506 H 0.0 **** 0.06
22598 H 39.70023982450781 65.80006291966856 7.691339588850994 H 0.0 **** 0.06
22599 H 40.11540455544387 66.46189113411089 6.091955899273984 H 0.0 **** 0.06
22600 H 39.08806188826596 67.39869270148466 7.202548659252869 H 0.0 **** 0.06
22601 C 78.99528607607044 8.992229339672605 70.71905691478443 C 0.0 **** -0.24
22602 H 78.79816730126356 8.079172124529947 70.15830544265657 H 0.0 **** 0.06
22603 H 78.1109731246276 9.258958258928857 71.2993817926039 H 0.0 **** 0.06
22604 H 79.23388669391852 9.79994537238423 70.02763585373222 H 0.0 **** 0.06
22605 H 79.83614671115669 8.829530831972917 71.39300211638104 H 0.0 **** 0.06
22606 C 88.30748495609498 104.23971811783468 92.759697095869 C 0.0 **** -0.24
22607 H 88.65666709287248 103.23403652941741 92.99443730604617 H 0.0 **** 0.06
22608 H 88.08383808284097 104.77168511098506 93.68503802300734 H 0.0 **** 0.06
22609 H 87.40612593498113 104.17775063212238 92.15004760092711 H 0.0 **** 0.06
22610 H 89.08207313666935 104.7747500576236 92.21029055912197 H 0.0 **** 0.06
22611 C 17.369357884169034 92.18965644700125 109.32722926783168 C 0.0 **** -0.24
22612 H 17.48338552443343 93.23917364810262 109.59863655197775 H 0.0 **** 0.06
22613 H 18.267978424819603 91.64148333880593 109.61072698044308 H 0.0 **** 0.06
22614 H 17.217407358827387 92.10775727527653 108.25123014999062 H 0.0 **** 0.06
22615 H 16.507966987492495 91.77062605347888 109.8489130007803 H 0.0 **** 0.06
22616 C 85.99766950364892 21.213364346109813 92.74749216549253 C 0.0 **** -0.24
22617 H 86.72568625555019 21.570924020481186 93.47559672601949 H 0.0 **** 0.06
22618 H 86.51298362800065 20.67630433887308 91.95090664204747 H 0.0 **** 0.06
22619 H 85.45909531469809 22.061219498611365 92.32588930889983 H 0.0 **** 0.06
22620 H 85.29116769008573 20.543042503399647 93.23959737034465 H 0.0 **** 0.06
22621 C 14.913205924541103 56.372643017853704 18.02135878297628 C 0.0 **** -0.24
22622 H 14.822595383204913 56.15742601507162 19.085765615396213 H 0.0 **** 0.06
22623 H 15.765950517904315 57.031927833488396 17.855573287338757 H 0.0 **** 0.06
22624 H 14.003337030340646 56.858979795730534 17.670302270223345 H 0.0 **** 0.06
22625 H 15.061245710576884 55.441600032794895 17.474500726574234 H 0.0 **** 0.06
22626 C 52.511588558514404 35.9850397713373 21.010367038454557 C 0.0 **** -0.24
22627 H 52.49886422292685 35.21800036143205 21.78520331137941 H 0.0 **** 0.06
22628 H 51.67462543888631 35.82743650148163 20.330214477468033 H 0.0 **** 0.06
22629 H 53.448180255959876 35.92429653014321 20.455773636467452 H 0.0 **** 0.06
22630 H 52.425729509928395 36.969147596056104 21.47208625651045 H 0.0 **** 0.06
22631 C 51.481273021645514 100.20864925982684 0.9685815174591141 C 0.0 **** -0.24
22632 H 50.57640158999795 99.6861059161796 1.2798784068006626 H 0.0 **** 0.06
22633 H 51.21914793738957 101.20045028858203 0.6001690732792895 H 0.0 **** 0.06
22634 H 51.97249533667645 99.64435005975264 0.1760295597222381 H 0.0 **** 0.06
22635 H 52.15606477694546 100.30392953706084 1.8192379235538567 H 0.0 **** 0.06
22636 C 112.37111085555314 71.16886398649933 74.58119469415942 C 0.0 **** -0.24
22637 H 111.4681095190795 71.2948997925374 73.98421721860228 H 0.0 **** 0.06
22638 H 113.15267490985048 71.82750557090239 74.20086913415963 H 0.0 **** 0.06
22639 H 112.70686605429181 70.13398954497612 74.51873769728854 H 0.0 **** 0.06
22640 H 112.15771728779217 71.41968219035456 75.62008302386096 H 0.0 **** 0.06
22641 C 90.56997262049538 86.92060917007856 4.573889241192848 C 0.0 **** -0.24
22642 H 91.45572178491273 86.99245050801576 5.205678647639926 H 0.0 **** 0.06
22643 H 90.69085134653119 87.56758899437312 3.705737216294372 H 0.0 **** 0.06
22644 H 89.69293357753622 87.23256234116755 5.142215193105443 H 0.0 **** 0.06
22645 H 90.44195537560199 85.88935383807893 4.244435734928935 H 0.0 **** 0.06
22646 C 64.33113154914972 55.02398039898218 67.95858082024424 C 0.0 **** -0.24
22647 H 64.71312911770445 55.13214749195941 68.9737814485658 H 0.0 **** 0.06
22648 H 63.777659295318735 55.92185634266084 67.68169296153985 H 0.0 **** 0.06
22649 H 63.66971365181279 54.15982114865622 67.91045978440928 H 0.0 **** 0.06
22650 H 65.16450054842622 54.8820813809731 67.26972059398219 H 0.0 **** 0.06
22651 C 37.77484992587168 23.600278665181605 85.9390367581739 C 0.0 **** -0.24
22652 H 37.1241845747881 24.2543966163367 85.35859565113623 H 0.0 **** 0.06
22653 H 37.816624930394596 23.952725457448437 86.97055980113774 H 0.0 **** 0.06
22654 H 38.77698897523511 23.61295963155556 85.5096009278906 H 0.0 **** 0.06
22655 H 37.38299222750706 22.584331088303486 85.91695684708034 H 0.0 **** 0.06
22656 C 100.81426410700885 27.42519528108045 12.627802952788926 C 0.0 **** -0.24
22657 H 99.93004010734865 27.507404317350733 11.996039436496858 H 0.0 **** 0.06
22658 H 101.56313425483324 28.145838955442343 12.29924585818398 H 0.0 **** 0.06
22659 H 101.22266472340141 26.41684231317717 12.55160011618517 H 0.0 **** 0.06
22660 H 100.54163522193414 27.629270447359772 13.662378364419084 H 0.0 **** 0.06
22661 C 64.64557968221521 51.050851942070594 20.74914091777285 C 0.0 **** -0.24
22662 H 64.37727849815701 51.64658180549053 21.62083805189812 H 0.0 **** 0.06
22663 H 64.46376736602241 51.630093263278 19.84292822641845 H 0.0 **** 0.06
22664 H 64.0404821081105 50.14431111602797 20.72818279065018 H 0.0 **** 0.06
22665 H 65.70053463140965 50.78306386369567 20.8022646601286 H 0.0 **** 0.06
22666 C 54.11143241321659 57.99104104781946 89.91916598897808 C 0.0 **** -0.24
22667 H 55.03238330446078 58.57443906546056 89.92424567020737 H 0.0 **** 0.06
22668 H 53.40530833957297 58.43447899925301 89.21629387124739 H 0.0 **** 0.06
22669 H 53.67762935637967 57.98716789105418 90.91877112864137 H 0.0 **** 0.06
22670 H 54.333197610912606 56.96751201930201 89.61537798517668 H 0.0 **** 0.06
22671 C 114.45532054589124 33.63774739325487 44.801977203313356 C 0.0 **** -0.24
22672 H 115.35765511272507 33.080465104553696 45.052943992164614 H 0.0 **** 0.06
22673 H 114.05858913339853 33.27875262128765 43.85155593071346 H 0.0 **** 0.06
22674 H 114.69500890626945 34.698647152571766 44.71852142793102 H 0.0 **** 0.06
22675 H 113.71001089751614 33.49407280109091 45.58383823302137 H 0.0 **** 0.06
22676 C 19.426829009459787 105.92884930478655 46.72008836194941 C 0.0 **** -0.24
22677 H 19.80122884795407 106.92414113552732 46.47843041175554 H 0.0 **** 0.06
22678 H 20.236578533484472 105.20428479674464 46.629382249344275 H 0.0 **** 0.06
22679 H 18.625454298333164 105.6656959612821 46.029737396516595 H 0.0 **** 0.06
22680 H 19.04502175634226 105.92184905105475 47.74062730860595 H 0.0 **** 0.06
22681 C 118.24176790373917 96.824596368816 92.61009222587555 C 0.0 **** -0.24
22682 H 118.88177040949824 97.46918929319378 92.00868117897656 H 0.0 **** 0.06
22683 H 118.83501381063195 96.0115572071995 93.02843798965003 H 0.0 **** 0.06
22684 H 117.44919144209587 96.41289118778997 91.98452846521866 H 0.0 **** 0.06
22685 H 117.7991261712342 97.4060139177196 93.41944045350911 H 0.0 **** 0.06
22686 C 107.66781226474939 36.75830294180062 80.12791467377212 C 0.0 **** -0.24
22687 H 107.44750323262329 36.34566899725124 79.14368111754703 H 0.0 **** 0.06
22688 H 108.7167666704612 37.050708700251846 80.17241273986878 H 0.0 **** 0.06
22689 H 107.46801058704392 36.00555821576958 80.8898032304705 H 0.0 **** 0.06
22690 H 107.03848048169075 37.63075271202115 80.30506292844368 H 0.0 **** 0.06
22691 C 83.79394777200258 89.66229286228656 108.76658793610895 C 0.0 **** -0.24
22692 H 83.2756784286315 90.56100729273851 109.10227362327603 H 0.0 **** 0.06
22693 H 84.13410963028926 89.80185747012322 107.7403826884364 H 0.0 **** 0.06
22694 H 83.1134853995519 88.81267103329503 108.81167903649074 H 0.0 **** 0.06
22695 H 84.65193772571413 89.47657278821814 109.41220998142913 H 0.0 **** 0.06
22696 C 60.98393110595404 93.2567617418645 32.73858678706932 C 0.0 **** -0.24
22697 H 61.402683739368484 93.59085336303085 31.78862485846645 H 0.0 **** 0.06
22698 H 60.43104493731417 94.07567304007262 33.200015876527004 H 0.0 **** 0.06
22699 H 61.791475239991854 92.94473902918446 33.40129252907826 H 0.0 **** 0.06
22700 H 60.3115785395232 92.4166992396176 32.56421766202868 H 0.0 **** 0.06
22701 C 98.61748932019728 91.53277833275163 12.788579303158404 C 0.0 **** -0.24
22702 H 97.90452955947435 91.89997750008092 12.050250968024724 H 0.0 **** 0.06
22703 H 98.07970687041663 91.18711291540265 13.671749195765361 H 0.0 **** 0.06
22704 H 99.2971597810101 92.33788757479388 13.068334125517737 H 0.0 **** 0.06
22705 H 99.18677705493207 90.70669930423912 12.362758370922627 H 0.0 **** 0.06
22706 C 111.49009590779843 64.20073049025379 66.38829969025994 C 0.0 **** -0.24
22707 H 112.37485556697533 64.72295971027944 66.02535684823027 H 0.0 **** 0.06
22708 H 111.18326428058306 64.62754217252805 67.34310684456517 H 0.0 **** 0.06
22709 H 111.72017248676461 63.143040697767304 66.5184252742419 H 0.0 **** 0.06
22710 H 110.6816374080261 64.31012511124382 65.66425111401799 H 0.0 **** 0.06
22711 C 34.80067535661301 27.582178218962895 33.28086544248899 C 0.0 **** -0.24
22712 H 34.14693521946522 28.452653762972147 33.224299186102826 H 0.0 **** 0.06
22713 H 34.39873878787452 26.7841360518087 32.656148468086 H 0.0 **** 0.06
22714 H 34.860827627859706 27.240642391276168 34.31469018966794 H 0.0 **** 0.06
22715 H 35.79616138596546 27.8525744409705 32.92889383687694 H 0.0 **** 0.06
22716 C 10.639077557880768 72.37785447614175 39.87483516507653 C 0.0 **** -0.24
22717 H 10.46813917667643 71.34580398787534 40.1795881424164 H 0.0 **** 0.06
22718 H 10.060410648693647 73.04515991797854 40.513471696470525 H 0.0 **** 0.06
22719 H 10.329180171732844 72.50673743689327 38.837943491128314 H 0.0 **** 0.06
22720 H 11.699883957833862 72.61334419525343 39.96873953113221 H 0.0 **** 0.06
22721 C 78.7310708253778 17.54112162462482 69.10282866903694 C 0.0 **** -0.24
22722 H 77.6789593260873 17.81845874409565 69.03611213180031 H 0.0 **** 0.06
22723 H 78.89282020848623 16.59924617254177 68.57854788303587 H 0.0 **** 0.06
22724 H 79.01137365894806 17.427304753792924 70.15012119019093 H 0.0 **** 0.06
22725 H 79.34053296742951 18.32068637268881 68.64610856868393 H 0.0 **** 0.06
22726 C 11.603057793004353 94.53556433341535 64.98068049533205 C 0.0 **** -0.24
22727 H 12.271625944769355 95.03964294130103 64.2831441698277 H 0.0 **** 0.06
22728 H 11.47770096716144 93.49617508541448 64.6771360482978 H 0.0 **** 0.06
22729 H 10.634222580965599 95.03474814755339 64.98131664123221 H 0.0 **** 0.06
22730 H 12.031174440900145 94.57165791098444 65.9835304776525 H 0.0 **** 0.06
22731 C 21.923327419023842 37.87175497109423 87.82604782425284 C 0.0 **** -0.24
22732 H 22.832399060783843 38.19448147462572 87.32005589268434 H 0.0 **** 0.06
22733 H 21.887433267196215 38.31069264802009 88.82334362855414 H 0.0 **** 0.06
22734 H 21.9200525154114 36.78404954553505 87.90796151188954 H 0.0 **** 0.06
22735 H 21.053745200413708 38.19580557085052 87.2542213235478 H 0.0 **** 0.06
22736 C 64.92201394865222 88.55266246427578 63.300887824300844 C 0.0 **** -0.24
22737 H 63.86486243143332 88.741569909085 63.48883527466387 H 0.0 **** 0.06
22738 H 65.07474590412895 87.48875853973672 63.12016166306711 H 0.0 **** 0.06
22739 H 65.50593896287046 88.861723445015 64.16681123445113 H 0.0 **** 0.06
22740 H 65.2421582283176 89.11959062504428 62.42577025203633 H 0.0 **** 0.06
22741 C 32.554750846645916 78.09939313987724 106.99288167482925 C 0.0 **** -0.24
22742 H 32.136350069395704 78.37688346203447 107.9597334769791 H 0.0 **** 0.06
22743 H 32.61005836123856 78.980824180828 106.35384569587856 H 0.0 **** 0.06
22744 H 31.917956428356916 77.34956003593379 106.52375084131754 H 0.0 **** 0.06
22745 H 33.55560734867467 77.68941700130961 107.13367402560343 H 0.0 **** 0.06
22746 C 38.98328099323959 56.279303805544366 48.67477330819585 C 0.0 **** -0.24
22747 H 39.53869375799526 57.132279298330864 49.06582201289936 H 0.0 **** 0.06
22748 H 37.987370051941554 56.25957202519883 49.11820951289522 H 0.0 **** 0.06
22749 H 39.51041297524131 55.357523525171224 48.92284711812786 H 0.0 **** 0.06
22750 H 38.897386629984254 56.36778856498193 47.591543321652495 H 0.0 **** 0.06
22751 C 56.894193984389894 71.390128488268 86.90758283303234 C 0.0 **** -0.24
22752 H 56.981328110686185 71.81134164029388 87.90918739620494 H 0.0 **** 0.06
22753 H 56.47444300414144 70.38659228121537 86.96982999518775 H 0.0 **** 0.06
22754 H 57.88134458738448 71.34301451272711 86.44766921545246 H 0.0 **** 0.06
22755 H 56.242145072140836 72.02173823304511 86.30396959943897 H 0.0 **** 0.06
22756 C 10.369309144989614 99.30165108488504 103.88606195437453 C 0.0 **** -0.24
22757 H 10.44390140591645 100.30368833012022 103.46322872222757 H 0.0 **** 0.06
22758 H 11.367270051069767 98.93540989154198 104.12828504212283 H 0.0 **** 0.06
22759 H 9.903464072511184 98.6356763370326 103.15960577341468 H 0.0 **** 0.06
22760 H 9.76345341341846 99.33358619761307 104.79164881061294 H 0.0 **** 0.06
22761 C 78.58642507066295 98.84694410747349 19.602143228334484 C 0.0 **** -0.24
22762 H 78.12112079187972 98.51916369823616 18.67282333168805 H 0.0 **** 0.06
22763 H 79.31034356307296 99.63340001215892 19.3872461981901 H 0.0 **** 0.06
22764 H 79.09365482834846 98.00425560899612 20.071460403634802 H 0.0 **** 0.06
22765 H 77.8202217165666 99.23043127574121 20.276272006170103 H 0.0 **** 0.06
22766 C 1.5028442708484988 66.03042740785881 9.827026075188314 C 0.0 **** -0.24
22767 H 0.46707649888180924 65.70843378802059 9.930817942262014 H 0.0 **** 0.06
22768 H 2.117092670490152 65.18465669504138 9.517538769792914 H 0.0 **** 0.06
22769 H 1.8622865268810216 66.41089110364649 10.783049192053507 H 0.0 **** 0.06
22770 H 1.5644299759956084 66.81891864215089 9.076114350434096 H 0.0 **** 0.06
22771 C 43.91618862121871 24.581070886204998 41.90850251540243 C 0.0 **** -0.24
22772 H 43.869265213162585 25.651107636956056 42.107142967770216 H 0.0 **** 0.06
22773 H 44.411632914732365 24.409887184762525 40.95201845850954 H 0.0 **** 0.06
22774 H 42.905964067753104 24.17384857773854 41.87163937379401 H 0.0 **** 0.06
22775 H 44.4777531850293 24.08856488458369 42.702745982840895 H 0.0 **** 0.06
22776 C 46.10899423561119 8.918595202993657 113.6790015838764 C 0.0 **** -0.24
22777 H 46.52479288206371 7.9456231323826785 113.94222667471854 H 0.0 **** 0.06
22778 H 45.740616168417716 8.890097839789775 112.65364649642213 H 0.0 **** 0.06
22779 H 46.88368654015986 9.680571259649781 113.76694994545646 H 0.0 **** 0.06
22780 H 45.287215932761825 9.156796854101216 114.35467309595826 H 0.0 **** 0.06
22781 C 60.28827071254265 45.10359565575875 34.18901248215928 C 0.0 **** -0.24
22782 H 59.44653193721842 45.781733498145385 34.32755648248903 H 0.0 **** 0.06
22783 H 61.20540047351678 45.682523269639034 34.07410177850962 H 0.0 **** 0.06
22784 H 60.125200170402145 44.49898268531226 33.29800989945588 H 0.0 **** 0.06
22785 H 60.37607374138815 44.452941929219776 35.05877963111661 H 0.0 **** 0.06
22786 C 32.601835321392144 30.13204184060413 42.73311742237655 C 0.0 **** -0.24
22787 H 33.386113148876426 30.858361715281262 42.51869650962681 H 0.0 **** 0.06
22788 H 32.45797160068779 29.487751184513797 41.86550093067024 H 0.0 **** 0.06
22789 H 31.67308616793659 30.655428358066672 42.955823541825396 H 0.0 **** 0.06
22790 H 32.89320754585368 29.52594289577081 43.591304408036365 H 0.0 **** 0.06
22791 C 56.669682297504416 58.14435318106187 117.1131129724339 C 0.0 **** -0.24
22792 H 55.647721741435895 58.32768289808099 117.446184219355 H 0.0 **** 0.06
22793 H 56.7775794069101 58.466876659061676 116.07722425939218 H 0.0 **** 0.06
22794 H 56.889266754025435 57.07853597787413 117.18796632028568 H 0.0 **** 0.06
22795 H 57.362272834411264 58.70231984451883 117.74227912460682 H 0.0 **** 0.06
22796 C 48.32982181199412 94.09976992983206 115.70373305059701 C 0.0 **** -0.24
22797 H 48.60861823140391 93.27237962427375 115.05213015240626 H 0.0 **** 0.06
22798 H 48.852395959355135 94.00433632717693 116.65560082790587 H 0.0 **** 0.06
22799 H 47.25394996877945 94.07946711338138 115.87591350824046 H 0.0 **** 0.06
22800 H 48.604323088438065 95.04289665449642 115.23128771383543 H 0.0 **** 0.06
22801 C 54.77790517689627 97.82942100496987 19.329505238085503 C 0.0 **** -0.24
22802 H 55.327401061564224 97.7676520390005 20.26896862291958 H 0.0 **** 0.06
22803 H 53.88250413955515 98.43400357360261 19.47263961079072 H 0.0 **** 0.06
22804 H 54.49307151889593 96.82663291748469 19.010166166584877 H 0.0 **** 0.06
22805 H 55.40940617692177 98.28773476657722 18.56882756955541 H 0.0 **** 0.06
22806 C 6.519134459841382 59.35570380393735 115.86251797278383 C 0.0 **** -0.24
22807 H 6.942594475749701 60.359532619931734 115.81177373167998 H 0.0 **** 0.06
22808 H 6.271426134144733 59.0151183551343 114.85730272724382 H 0.0 **** 0.06
22809 H 5.616176560326863 59.373634848325246 116.47291791280485 H 0.0 **** 0.06
22810 H 7.24618901565357 58.676740013386585 116.3077767725371 H 0.0 **** 0.06
22811 C 37.73022625198183 29.630049031397363 21.824523352853873 C 0.0 **** -0.24
22812 H 38.75562758587766 29.826224623898554 22.13710419594517 H 0.0 **** 0.06
22813 H 37.729186075280595 28.879557367173184 21.034579241350116 H 0.0 **** 0.06
22814 H 37.282900654783106 30.552197418995206 21.45151957586728 H 0.0 **** 0.06
22815 H 37.154802156690636 29.264725536371458 22.674559450406946 H 0.0 **** 0.06
22816 C 12.766471350506777 48.13269541221633 100.26901914171518 C 0.0 **** -0.24
22817 H 13.282897762230448 47.623422186374896 101.0826050957624 H 0.0 **** 0.06
22818 H 12.157486783847673 48.94082465600796 100.67484856790685 H 0.0 **** 0.06
22819 H 12.125146390244879 47.42338456045429 99.74571235795995 H 0.0 **** 0.06
22820 H 13.498669376812728 48.54191617639686 99.57370919431852 H 0.0 **** 0.06
22821 C 117.06829331519327 96.12737689035421 39.24882951261958 C 0.0 **** -0.24
22822 H 117.59605055290943 97.05305356685272 39.02191656209624 H 0.0 **** 0.06
22823 H 117.77624737450549 95.2990847746564 39.26170394351476 H 0.0 **** 0.06
22824 H 116.3092454675528 95.94655090574565 38.4883297786709 H 0.0 **** 0.06
22825 H 116.5899780689324 96.21286157219555 40.224815934254195 H 0.0 **** 0.06
22826 C 93.70256265151869 18.523394177779814 23.69850607428245 C 0.0 **** -0.24
22827 H 94.47166022206017 19.206074529264637 24.06173068177077 H 0.0 **** 0.06
22828 H 94.16797387939852 17.727675495159055 23.11721465742113 H 0.0 **** 0.06
22829 H 92.99981320563217 19.07082546996026 23.069934043898144 H 0.0 **** 0.06
22830 H 93.1714315567225 18.092082039096294 24.547173372965204 H 0.0 **** 0.06
22831 C 4.2004857290521045 31.491674256953587 86.89485929630618 C 0.0 **** -0.24
22832 H 3.1291173899217313 31.30310601870957 86.96451185322488 H 0.0 **** 0.06
22833 H 4.414802820721462 32.504227688499896 87.23747034339036 H 0.0 **** 0.06
22834 H 4.5210700367141925 31.381799761482256 85.85867210703148 H 0.0 **** 0.06
22835 H 4.7360159319095345 30.7755887708489 87.51831062320755 H 0.0 **** 0.06
22836 C 12.494162642675121 65.45130522829928 72.91817568622773 C 0.0 **** -0.24
22837 H 12.524312962348745 66.32376223075133 73.5708634413453 H 0.0 **** 0.06
22838 H 13.111403298088135 64.65881974266719 73.34335964291986 H 0.0 **** 0.06
22839 H 12.877124920006224 65.72206699396452 71.93415610348188 H 0.0 **** 0.06
22840 H 11.465939467784949 65.10176273852008 72.82606863867616 H 0.0 **** 0.06
22841 C 19.82577477039345 99.60799153116344 27.29748247285972 C 0.0 **** -0.24
22842 H 19.417920619115876 98.87724687492499 27.996387222282756 H 0.0 **** 0.06
22843 H 20.571874608856632 99.12716602230984 26.664444986513637 H 0.0 **** 0.06
22844 H 20.29137576713785 100.4217721057372 27.85328769785822 H 0.0 **** 0.06
22845 H 19.022636437098583 100.00432516429228 26.67642529213191 H 0.0 **** 0.06
22846 C 100.21347241725834 88.95889166005804 109.97750714537275 C 0.0 **** -0.24
22847 H 101.19130319583337 89.19973691854312 110.39561137878096 H 0.0 **** 0.06
22848 H 99.44349090625676 89.1378055786573 110.728398540853 H 0.0 **** 0.06
22849 H 100.19429768647669 87.9112210545778 109.6783112797095 H 0.0 **** 0.06
22850 H 100.02636422446699 89.58864038881566 109.1072935643086 H 0.0 **** 0.06
22851 C 18.40499600504912 33.94877783168948 22.453640250529816 C 0.0 **** -0.24
22852 H 18.457111404452906 32.88009687028841 22.24399389395768 H 0.0 **** 0.06
22853 H 19.332040963041035 34.42634924743708 22.135728652094883 H 0.0 **** 0.06
22854 H 18.26446547774575 34.10300057586645 23.523272457692826 H 0.0 **** 0.06
22855 H 17.566582858243745 34.383853323748625 21.91027274691379 H 0.0 **** 0.06
22856 C 85.3260770992973 100.07367183107777 105.70363743690265 C 0.0 **** -0.24
22857 H 85.083312555014 99.39290151502922 104.88718365780079 H 0.0 **** 0.06
22858 H 85.06870732292018 101.09246012582156 105.41486980385312 H 0.0 **** 0.06
22859 H 86.39309487732132 100.0149599063987 105.9188037687183 H 0.0 **** 0.06
22860 H 84.76021407621207 99.79144461546849 106.59184149317295 H 0.0 **** 0.06
22861 C 66.55049471917496 85.77898406859046 77.21636813072146 C 0.0 **** -0.24
22862 H 66.09978935619583 86.28225492331009 78.07178422525479 H 0.0 **** 0.06
22863 H 66.20604582644512 84.74470749371858 77.18096212219675 H 0.0 **** 0.06
22864 H 67.6363304316568 85.79819422447201 77.31351949821598 H 0.0 **** 0.06
22865 H 66.25883932436508 86.29088732782589 76.29940643970886 H 0.0 **** 0.06
22866 C 69.3494469890828 31.575866902043202 13.137731913731443 C 0.0 **** -0.24
22867 H 70.39312100982329 31.483903532042433 13.440566725924356 H 0.0 **** 0.06
22868 H 69.28689679329042 31.58997796654478 12.049404321790036 H 0.0 **** 0.06
22869 H 68.93593094956032 32.50161880764128 13.53891455761314 H 0.0 **** 0.06
22870 H 68.78362564497846 30.72810068051976 13.523712734760778 H 0.0 **** 0.06
22871 C 39.04119013124466 66.25806894585406 38.32934975468902 C 0.0 **** -0.24
22872 H 39.6685599508391 65.66904401049743 38.998397815804935 H 0.0 **** 0.06
22873 H 38.429830112429926 66.94478633606695 38.915088384000285 H 0.0 **** 0.06
22874 H 38.394424146136885 65.59120781663927 37.75821962213075 H 0.0 **** 0.06
22875 H 39.6717002554374 66.82552651025676 37.64558487875115 H 0.0 **** 0.06
22876 C 94.35749262528617 93.95453586530562 116.10877036320089 C 0.0 **** -0.24
22877 H 93.50158089950591 94.33881296270317 115.55381198014148 H 0.0 **** 0.06
22878 H 94.9424303759105 93.29871828067718 115.46337844160713 H 0.0 **** 0.06
22879 H 94.00724644076186 93.39404686774009 116.9749379003412 H 0.0 **** 0.06
22880 H 94.97835925726383 94.78696686989548 116.4400011268107 H 0.0 **** 0.06
22881 C 30.51792546351163 11.216368009196003 53.52069911349336 C 0.0 **** -0.24
22882 H 30.18866647049765 11.515260603413708 54.51564196407806 H 0.0 **** 0.06
22883 H 31.57209634619761 10.942168512589433 53.55322481483917 H 0.0 **** 0.06
22884 H 30.378653098024643 12.04653709749141 52.827941518803044 H 0.0 **** 0.06
22885 H 29.93014221222205 10.360860096722945 53.184994263576534 H 0.0 **** 0.06
22886 C 54.59730675121202 83.71408228965876 62.6626138595847 C 0.0 **** -0.24
22887 H 53.518048094252634 83.61993702157022 62.5455500051936 H 0.0 **** 0.06
22888 H 54.878630919480656 84.76519283884878 62.60470142783151 H 0.0 **** 0.06
22889 H 55.09833299801119 83.15817028054579 61.869676819798705 H 0.0 **** 0.06
22890 H 54.89373820483104 83.31126791254101 63.63182004067274 H 0.0 **** 0.06
22891 C 13.265797882731334 55.940504209264965 35.21947180652822 C 0.0 **** -0.24
22892 H 13.720797673831271 56.495923947505254 36.04004948003876 H 0.0 **** 0.06
22893 H 12.212263502093748 55.766715811978536 35.43935016681624 H 0.0 **** 0.06
22894 H 13.775948071112339 54.984630877712725 35.101473861777436 H 0.0 **** 0.06
22895 H 13.354689966488905 56.515543246340975 34.29806590206783 H 0.0 **** 0.06
22896 C 51.8659933343106 5.770574932648088 58.73430821777317 C 0.0 **** -0.24
22897 H 51.72651445359001 5.2230904052698435 57.8022170759806 H 0.0 **** 0.06
22898 H 52.403920149261126 6.697967351588957 58.533622628808054 H 0.0 **** 0.06
22899 H 52.44119193802864 5.161446182967325 59.43143610324643 H 0.0 **** 0.06
22900 H 50.89405244769311 6.000926645997467 59.16905583457581 H 0.0 **** 0.06
22901 C 50.61815359100811 113.92173197206144 40.97478776370258 C 0.0 **** -0.24
22902 H 51.19381574997746 114.7709961301497 41.34152197375994 H 0.0 **** 0.06
22903 H 50.32495922053883 113.29122228075619 41.814638466838915 H 0.0 **** 0.06
22904 H 51.226767944023976 113.342623438011 40.28061385311173 H 0.0 **** 0.06
22905 H 49.72620767552783 114.2824122911042 40.4619926870493 H 0.0 **** 0.06
22906 C 118.25398872241641 84.22433774577044 37.16598760079387 C 0.0 **** -0.24
22907 H 117.55443941072716 84.03991304247987 37.98129665816285 H 0.0 **** 0.06
22908 H 117.70282116211754 84.52420371515299 36.27481462211435 H 0.0 **** 0.06
22909 H 118.81666098291021 83.31501878497463 36.957691055925466 H 0.0 **** 0.06
22910 H 118.94274861459948 85.01947148256278 37.45185423947294 H 0.0 **** 0.06
22911 C 54.59059369732898 4.7180051001788 54.27048929810442 C 0.0 **** -0.24
22912 H 55.2425938676032 5.571290779289171 54.45905741691004 H 0.0 **** 0.06
22913 H 55.1530026611919 3.7945130470332344 54.40852248164799 H 0.0 **** 0.06
22914 H 54.21420783859732 4.766284701660425 53.248795449541205 H 0.0 **** 0.06
22915 H 53.75209427660755 4.740784023996298 54.96759366355806 H 0.0 **** 0.06
22916 C 107.93737434761817 88.06360251553556 87.77290979672131 C 0.0 **** -0.24
22917 H 107.79411381161077 87.50607889620647 86.84692521640159 H 0.0 **** 0.06
22918 H 107.60940998485296 89.09294525244991 87.63178073231853 H 0.0 **** 0.06
22919 H 108.99264461732733 88.05083273738208 88.04386570748508 H 0.0 **** 0.06
22920 H 107.35248703237346 87.60130479853797 88.56820737042068 H 0.0 **** 0.06
22921 C 37.21652832517279 49.31035578184742 46.86859934706359 C 0.0 **** -0.24
22922 H 37.780148467825114 49.56705076178898 45.971529337231374 H 0.0 **** 0.06
22923 H 36.623043263678596 50.16943594602455 47.182088337123304 H 0.0 **** 0.06
22924 H 37.907999799314325 49.036350609287666 47.66531380473603 H 0.0 **** 0.06
22925 H 36.55705370427009 48.47058169188267 46.654779003482304 H 0.0 **** 0.06
22926 C 105.86762437435482 32.86404927394482 2.917015274608957 C 0.0 **** -0.24
22927 H 105.81182048692042 32.94985636740061 1.831984575260151 H 0.0 **** 0.06
22928 H 106.841189796019 33.215304922724336 3.2594264730816462 H 0.0 **** 0.06
22929 H 105.73413068471186 31.821664155381555 3.2065947574944857 H 0.0 **** 0.06
22930 H 105.08283808503447 33.47076698836934 3.368719447964949 H 0.0 **** 0.06
22931 C 42.2858475044756 13.112889278280164 6.293994449098564 C 0.0 **** -0.24
22932 H 43.297198525855855 12.886869680733923 6.630565049707577 H 0.0 **** 0.06
22933 H 41.714537669920276 13.537810247561055 7.119702539010522 H 0.0 **** 0.06
22934 H 41.803708440033134 12.19657006699768 5.9523679921528085 H 0.0 **** 0.06
22935 H 42.32638862434814 13.829793549523174 5.473901615733428 H 0.0 **** 0.06
22936 C 65.72509909750045 52.067907655022566 76.23993707705961 C 0.0 **** -0.24
22937 H 65.95108927181172 51.626309996081375 75.26985539930752 H 0.0 **** 0.06
22938 H 66.32103616790869 51.57747485591386 77.01054549180824 H 0.0 **** 0.06
22939 H 64.66493561598185 51.93609526093678 76.46027898872728 H 0.0 **** 0.06
22940 H 65.96135074117444 53.13150356047623 76.21909376012343 H 0.0 **** 0.06
22941 C 77.78074924985151 97.98335534815385 76.8815858841125 C 0.0 **** -0.24
22942 H 77.92394692838317 97.42335778325935 75.95724138903034 H 0.0 **** 0.06
22943 H 76.74975895675422 97.87273414727673 77.21667019743006 H 0.0 **** 0.06
22944 H 77.99473171611976 99.03707104773792 76.7046331850762 H 0.0 **** 0.06
22945 H 78.45544495284128 97.59848496673177 77.64753247429036 H 0.0 **** 0.06
22946 C 104.27522631730511 111.32714710648746 91.74679394092101 C 0.0 **** -0.24
22947 H 103.29262367630483 111.38839187652351 92.21450826845052 H 0.0 **** 0.06
22948 H 104.31306357713981 112.00086670710145 90.89122467696819 H 0.0 **** 0.06
22949 H 104.45540381357324 110.30464886575592 91.41258430892509 H 0.0 **** 0.06
22950 H 105.03900040896036 111.61295492763927 92.46945744997589 H 0.0 **** 0.06
22951 C 14.148066218539157 69.38943134891883 115.8356195634166 C 0.0 **** -0.24
22952 H 14.0511197641369 69.89085836911235 114.87226711343143 H 0.0 **** 0.06
22953 H 14.666369519738453 68.43970091095832 115.70003783360309 H 0.0 **** 0.06
22954 H 13.157578968249055 69.20826455391136 116.25170141195366 H 0.0 **** 0.06
22955 H 14.718486659362611 70.0208304845475 116.51685463502798 H 0.0 **** 0.06
22956 C 105.59190317999565 22.40247651674551 52.813932250363166 C 0.0 **** -0.24
22957 H 106.52939536338593 21.98428830945616 52.447611911786424 H 0.0 **** 0.06
22958 H 105.68183313278618 23.486235287335603 52.885835530667094 H 0.0 **** 0.06
22959 H 105.37108437252087 21.989441118312953 53.79837595405536 H 0.0 **** 0.06
22960 H 104.78764414781827 22.149271579544006 52.12414231183931 H 0.0 **** 0.06
22961 C 41.88219514617758 98.27212046114556 65.21296515378774 C 0.0 **** -0.24
22962 H 41.910682349046866 98.23456566351103 64.12413933400506 H 0.0 **** 0.06
22963 H 42.28239069074948 97.34314702359364 65.6199669823014 H 0.0 **** 0.06
22964 H 40.8518196000052 98.40051463533092 65.54503556539242 H 0.0 **** 0.06
22965 H 42.48278400220562 99.112292859928 65.56351046632903 H 0.0 **** 0.06
22966 C 87.7407089148617 107.03289125034325 0.12141259233649748 C 0.0 **** -0.24
22967 H 87.48773823812536 107.83573580790625 0.8144689160867244 H 0.0 **** 0.06
22968 H 88.68642410853613 107.261992774059 -0.3712687663271197 H 0.0 **** 0.06
22969 H 86.95390802969689 106.93833883445609 -0.6267817398475017 H 0.0 **** 0.06
22970 H 87.83419588494809 106.09644568036987 0.6705650297664647 H 0.0 **** 0.06
22971 C 6.617886532099039 118.8595904633491 31.735750214957307 C 0.0 **** -0.24
22972 H 6.533131251709175 118.80528037616625 30.650981367165308 H 0.0 **** 0.06
22973 H 7.528004142115815 118.35210768615576 32.055365187065064 H 0.0 **** 0.06
22974 H 5.75232844326365 118.37774148890645 32.19156529857918 H 0.0 **** 0.06
22975 H 6.655840878664463 119.90411864582558 32.045525831508144 H 0.0 **** 0.06
22976 C 106.00043155199413 14.199803085178882 39.654514088911924 C 0.0 **** -0.24
22977 H 105.3099824287221 13.658570993796939 39.00769077721017 H 0.0 **** 0.06
22978 H 105.43652923863456 14.845897913136639 40.32832066486341 H 0.0 **** 0.06
22979 H 106.6693862705389 14.806146156746415 39.04399281917918 H 0.0 **** 0.06
22980 H 106.58487622155977 13.48873330594935 40.23777794424262 H 0.0 **** 0.06
22981 C 59.58204831903694 109.86832316183592 23.10891673032492 C 0.0 **** -0.24
22982 H 59.05327368314627 110.66472583945591 23.634010831865183 H 0.0 **** 0.06
22983 H 59.46112000204664 109.9997667363343 22.033576083256733 H 0.0 **** 0.06
22984 H 59.16992024805759 108.9034056412066 23.4061090371644 H 0.0 **** 0.06
22985 H 60.64131365575966 109.9053517574713 23.364072414392297 H 0.0 **** 0.06
22986 C 13.032654404646625 68.92356432590518 41.529610156678174 C 0.0 **** -0.24
22987 H 13.940106073372863 68.35169285751277 41.336869305898304 H 0.0 **** 0.06
22988 H 12.393769081853382 68.89954537464192 40.64686206279028 H 0.0 **** 0.06
22989 H 13.296457650702589 69.95678487960035 41.760466909673255 H 0.0 **** 0.06
22990 H 12.500770976671497 68.48706831872312 42.375680420884706 H 0.0 **** 0.06
22991 C 15.918917924141596 17.929159028322033 36.87927006343983 C 0.0 **** -0.24
22992 H 16.623472468226424 17.10719373404271 36.75730921671558 H 0.0 **** 0.06
22993 H 16.446606465509404 18.87821162190437 36.78066685561629 H 0.0 **** 0.06
22994 H 15.45806107684274 17.869243015580423 37.86495742517647 H 0.0 **** 0.06
22995 H 15.146069646695167 17.861206536472793 36.11234328438951 H 0.0 **** 0.06
22996 C 80.91429721130459 64.78057354117297 78.72033481407493 C 0.0 **** -0.24
22997 H 79.99537427111727 64.70241304147069 79.3004857229015 H 0.0 **** 0.06
22998 H 80.67878204357072 65.1156702906137 77.71041287654185 H 0.0 **** 0.06
22999 H 81.40004131709267 63.805494744528794 78.6764644898775 H 0.0 **** 0.06
23000 H 81.58334763954778 65.49836672254273 79.19563480492172 H 0.0 **** 0.06
23001 C 96.48878916036435 118.39205440540155 96.32796888764426 C 0.0 **** -0.24
23002 H 96.80327374283871 117.497234056758 96.86665586441066 H 0.0 **** 0.06
23003 H 96.63603390011633 118.24146966840135 95.25793997960835 H 0.0 **** 0.06
23004 H 97.082044524998 119.24311828041579 96.66168118030751 H 0.0 **** 0.06
23005 H 95.43396612460293 118.58329206625999 96.52618370427774 H 0.0 **** 0.06
23006 C 57.57804744515571 64.35636587550738 8.007654947787817 C 0.0 **** -0.24
23007 H 57.806681108019994 64.00865774702336 9.015077040617633 H 0.0 **** 0.06
23008 H 57.12345010839636 63.546518511909824 7.437963788265698 H 0.0 **** 0.06
23009 H 58.49781413434908 64.67562655955749 7.516945811020911 H 0.0 **** 0.06
23010 H 56.88582852641435 65.19640683268017 8.062488448608093 H 0.0 **** 0.06
23011 C 31.312482612651905 99.40565318766153 45.76090022520319 C 0.0 **** -0.24
23012 H 31.776596074923617 99.8478056257756 44.87909043423872 H 0.0 **** 0.06
23013 H 31.40983841774809 98.32040900683035 45.71692811220757 H 0.0 **** 0.06
23014 H 30.257132160946384 99.67565483018251 45.79039722755169 H 0.0 **** 0.06
23015 H 31.808596016164557 99.77869230307073 46.657063098545905 H 0.0 **** 0.06
23016 C 18.748257284952132 43.41408478749236 29.295567854656525 C 0.0 **** -0.24
23017 H 19.12627461017098 43.334228710277344 28.276065274663864 H 0.0 **** 0.06
23018 H 18.036520409678687 42.61021318535326 29.48246518975057 H 0.0 **** 0.06
23019 H 18.252475465299852 44.375947739869005 29.424178053688735 H 0.0 **** 0.06
23020 H 19.57860360527735 43.33650655299575 29.997332179141267 H 0.0 **** 0.06
23021 C 72.60607556314264 33.52173382524603 74.2300949924574 C 0.0 **** -0.24
23022 H 73.62650665598272 33.85201678436064 74.42595503818256 H 0.0 **** 0.06
23023 H 72.23301072289388 34.00843285064002 73.3286776183221 H 0.0 **** 0.06
23024 H 71.9707126810226 33.784075664108 75.0758356845912 H 0.0 **** 0.06
23025 H 72.59533317223296 32.43989420140386 74.08962676560935 H 0.0 **** 0.06
23026 C 91.07920684022875 68.17129808239727 15.997427097930824 C 0.0 **** -0.24
23027 H 90.68521649145498 69.18393355302351 15.913548888368382 H 0.0 **** 0.06
23028 H 90.8524869543833 67.61647441157007 15.086243012257711 H 0.0 **** 0.06
23029 H 90.61973939507374 67.67281553625503 16.851281546918187 H 0.0 **** 0.06
23030 H 92.1593845200027 68.2119688287404 16.138634944178932 H 0.0 **** 0.06
23031 C 8.285646389148326 108.81702663740748 57.42269948245524 C 0.0 **** -0.24
23032 H 8.204216930583613 109.2175806973475 56.41222718739007 H 0.0 **** 0.06
23033 H 8.818296810667164 109.52750607930408 58.05403220009529 H 0.0 **** 0.06
23034 H 8.832119772559508 107.87386310074208 57.39616648536693 H 0.0 **** 0.06
23035 H 7.288191179154779 108.64629801512052 57.8274937516033 H 0.0 **** 0.06
23036 C 46.85738296478007 28.16516403399565 0.14964632271605183 C 0.0 **** -0.24
23037 H 45.85587317374586 28.502083842498365 -0.11461424737782977 H 0.0 **** 0.06
23038 H 47.50971687682696 28.247840811906165 -0.7190650932764129 H 0.0 **** 0.06
23039 H 46.81672723655896 27.12494369856782 0.4762461819201462 H 0.0 **** 0.06
23040 H 47.246684858028004 28.783812383594046 0.9586295498277195 H 0.0 **** 0.06
23041 C 16.703483994909668 66.66227983686642 13.8174525303954 C 0.0 **** -0.24
23042 H 17.20155315331967 67.60193773424396 13.579537228026425 H 0.0 **** 0.06
23043 H 17.422551786115545 65.84506663001318 13.75526978301383 H 0.0 **** 0.06
23044 H 15.895741395043594 66.49031364885704 13.106460225038944 H 0.0 **** 0.06
23045 H 16.294767537822047 66.71206674963742 14.82642857496353 H 0.0 **** 0.06
23046 C 43.052512457923314 28.582409190619813 56.6084448499192 C 0.0 **** -0.24
23047 H 43.188870404331254 29.10412707222804 57.55545884313572 H 0.0 **** 0.06
23048 H 43.915404710276675 27.94433298372479 56.41754097851766 H 0.0 **** 0.06
23049 H 42.95479733996328 29.311923040934715 55.80436035301724 H 0.0 **** 0.06
23050 H 42.15097165014993 27.97169907106118 56.65627670959736 H 0.0 **** 0.06
23051 C 27.75478235941027 89.0984431146021 50.43255244840077 C 0.0 **** -0.24
23052 H 27.14690277024775 88.54940087959568 51.15162309451 H 0.0 **** 0.06
23053 H 27.116135897204344 89.48302577913432 49.63612696243803 H 0.0 **** 0.06
23054 H 28.50381503750264 88.43109512068474 50.00720526576441 H 0.0 **** 0.06
23055 H 28.250141774529396 89.92839820381789 50.93513188715218 H 0.0 **** 0.06
23056 C 6.136065988233497 24.85193643719012 118.27157997833388 C 0.0 **** -0.24
23057 H 5.516046446308195 25.49756395404819 117.6503196505631 H 0.0 **** 0.06
23058 H 7.18303182447147 25.13659726161748 118.16053762686046 H 0.0 **** 0.06
23059 H 6.006272190571451 23.81502567816179 117.96063263037982 H 0.0 **** 0.06
23060 H 5.839640433239396 24.957878507566164 119.31492350337261 H 0.0 **** 0.06
23061 C 112.47721330821028 117.41961228006213 10.58523887850123 C 0.0 **** -0.24
23062 H 112.54856775352991 116.95935314557565 11.570328517231758 H 0.0 **** 0.06
23063 H 113.2946314279013 118.1299352690734 10.456419199385095 H 0.0 **** 0.06
23064 H 111.52430319200073 117.9415749903267 10.495713285080797 H 0.0 **** 0.06
23065 H 112.54272892573317 116.64767335545363 9.818188948039506 H 0.0 **** 0.06
23066 C 7.943652281873753 67.44214613135011 104.97201091894229 C 0.0 **** -0.24
23067 H 7.9386016683593255 66.3835217579381 104.714475612495 H 0.0 **** 0.06
23068 H 8.068974505143345 67.55400741760562 106.04868725101235 H 0.0 **** 0.06
23069 H 6.999934606491493 67.89472228238671 104.66717266565286 H 0.0 **** 0.06
23070 H 8.76614543633616 67.93701529706962 104.45608741920492 H 0.0 **** 0.06
23071 C 67.96102339015877 114.65611871191658 74.5203398689631 C 0.0 **** -0.24
23072 H 67.32945603055322 115.19857573261606 75.22427854046097 H 0.0 **** 0.06
23073 H 68.46091126970211 113.83678250092618 75.03774483377663 H 0.0 **** 0.06
23074 H 68.70683021604842 115.33349288556127 74.10412839883494 H 0.0 **** 0.06
23075 H 67.34458102350033 114.25485265945912 73.71499210514733 H 0.0 **** 0.06
23076 C 17.02589710498586 66.91685186359891 10.055807045176607 C 0.0 **** -0.24
23077 H 16.10071354182466 67.37766898618383 10.401725411035756 H 0.0 **** 0.06
23078 H 17.364721311516035 67.41977670398015 9.14930143993854 H 0.0 **** 0.06
23079 H 16.85021286407246 65.86318897401097 9.843269935688937 H 0.0 **** 0.06
23080 H 17.788734982174276 67.00960612829934 10.829516066775625 H 0.0 **** 0.06
23081 C 80.17809523415286 113.46014195829757 93.71754900808278 C 0.0 **** -0.24
23082 H 80.1712656281054 112.40421726729771 93.98888828761807 H 0.0 **** 0.06
23083 H 80.79583113177472 114.01304012435145 94.42503790007854 H 0.0 **** 0.06
23084 H 79.15894703138991 113.84790230104129 93.74382677146286 H 0.0 **** 0.06
23085 H 80.58362707554011 113.57414028886544 92.71266352935857 H 0.0 **** 0.06
23086 C 103.19944545250465 28.280918644267217 75.48594758489313 C 0.0 **** -0.24
23087 H 103.5481955373065 28.363267298281585 76.51569060446005 H 0.0 **** 0.06
23088 H 103.52981289636062 27.331071651152683 75.06552207264386 H 0.0 **** 0.06
23089 H 103.60944212862663 29.101343275477632 74.89791216628302 H 0.0 **** 0.06
23090 H 102.1110253864951 28.32777485975521 75.46587833811216 H 0.0 **** 0.06
23091 C 89.46420311691864 64.62809927255208 60.11743901375502 C 0.0 **** -0.24
23092 H 89.12638268343957 65.25478961925234 60.942968025038795 H 0.0 **** 0.06
23093 H 89.07842462458845 63.616716685525404 60.24907427529291 H 0.0 **** 0.06
23094 H 90.55409723839327 64.60339740100264 60.10213455284108 H 0.0 **** 0.06
23095 H 89.09654077435343 65.03765335452002 59.17663062687987 H 0.0 **** 0.06
23096 C 80.65862425037318 33.15864303138936 8.081874907901838 C 0.0 **** -0.24
23097 H 79.77443187194481 33.533212383095695 7.5673410079553705 H 0.0 **** 0.06
23098 H 81.54073380805818 33.68795799468265 7.72121997256043 H 0.0 **** 0.06
23099 H 80.76866276825339 32.09191032819767 7.884602297032622 H 0.0 **** 0.06
23100 H 80.55011501202381 33.320827562235046 9.154839289549454 H 0.0 **** 0.06
23101 C 97.9675936553424 4.3698071515511145 61.56921798875618 C 0.0 **** -0.24
23102 H 96.88772047493262 4.3080128955088615 61.70308710207942 H 0.0 **** 0.06
23103 H 98.38989575646485 5.030045156697083 62.32739497253999 H 0.0 **** 0.06
23104 H 98.18834675403235 4.766078181990368 60.57852991588658 H 0.0 **** 0.06
23105 H 98.40339540256252 3.3758521562223276 61.66848455621613 H 0.0 **** 0.06
23106 C 14.684417878235678 81.96117479242278 72.06806551782967 C 0.0 **** -0.24
23107 H 14.061921681251192 82.7290217142023 72.52942575288282 H 0.0 **** 0.06
23108 H 15.216393849778115 81.41118087349693 72.84477966315151 H 0.0 **** 0.06
23109 H 15.403902952841975 82.43230661935527 71.39889098286525 H 0.0 **** 0.06
23110 H 14.055453653366897 81.27595071867287 71.5008561484282 H 0.0 **** 0.06
23111 C 115.02278811933209 75.46312774231308 95.16171105435163 C 0.0 **** -0.24
23112 H 114.28336536972856 74.77431529214377 94.75330565613581 H 0.0 **** 0.06
23113 H 115.77123462645352 75.6859426231731 94.40051923215043 H 0.0 **** 0.06
23114 H 115.50662613037667 75.00721086169085 96.0255919227987 H 0.0 **** 0.06
23115 H 114.53008064429221 76.38617069058483 95.46658907337957 H 0.0 **** 0.06
23116 C 12.014891585012883 89.44394188163707 8.769000786567958 C 0.0 **** -0.24
23117 H 11.045910232396533 89.417882169195 8.2701023776918 H 0.0 **** 0.06
23118 H 11.95311198940216 90.08061401826129 9.650583079345736 H 0.0 **** 0.06
23119 H 12.765658978916132 89.84123042972371 8.08518300583566 H 0.0 **** 0.06
23120 H 12.295982981659783 88.4337472685875 9.068895965243613 H 0.0 **** 0.06
23121 C 11.57248731539869 8.773836555030115 37.6977771309804 C 0.0 **** -0.24
23122 H 11.422691438148433 9.819228910071558 37.96808732869732 H 0.0 **** 0.06
23123 H 12.637969505442499 8.582398424995645 37.56701870193723 H 0.0 **** 0.06
23124 H 11.04701524354823 8.560406551407496 36.76705144958652 H 0.0 **** 0.06
23125 H 11.18308708847161 8.134781692741711 38.490427071416946 H 0.0 **** 0.06
23126 C 118.81252692880896 107.45082489273298 81.71892142494778 C 0.0 **** -0.24
23127 H 118.32623100905163 107.58660349542342 82.68480651341622 H 0.0 **** 0.06
23128 H 119.89191556063322 107.39085223538595 81.86122419842576 H 0.0 **** 0.06
23129 H 118.57758332196488 108.29517067995636 81.0710416146361 H 0.0 **** 0.06
23130 H 118.45533707232178 106.52888644386283 81.2599873595085 H 0.0 **** 0.06
23131 C 66.0151877479731 82.33950127024286 103.72780054153566 C 0.0 **** -0.24
23132 H 66.63879462517409 82.98200688057943 103.10571485049672 H 0.0 **** 0.06
23133 H 66.3896250540179 82.35146827795108 104.75184551965015 H 0.0 **** 0.06
23134 H 66.04540454895013 81.32075315128168 103.3416337750053 H 0.0 **** 0.06
23135 H 64.98800744179758 82.70464333910638 103.71172286828167 H 0.0 **** 0.06
23136 C 102.080570567519 112.61288440171644 3.732444845790809 C 0.0 **** -0.24
23137 H 102.41638667046604 112.60841579444303 4.7687435788258625 H 0.0 **** 0.06
23138 H 102.60074445228474 113.39902232774747 3.185754053174705 H 0.0 **** 0.06
23139 H 101.0066665546351 112.79681786565791 3.6991397785027686 H 0.0 **** 0.06
23140 H 102.29819028372313 111.64752737456548 3.2752183683073213 H 0.0 **** 0.06
23141 C 24.666303641117757 11.597371175898672 27.161149651006895 C 0.0 **** -0.24
23142 H 25.315908381710983 12.233962203344618 27.763113272309 H 0.0 **** 0.06
23143 H 23.635001939335474 11.936696333746454 27.257429451880625 H 0.0 **** 0.06
23144 H 24.74567099103745 10.567249815821668 27.509088439300797 H 0.0 **** 0.06
23145 H 24.971062164191252 11.653157641471154 26.11658006294499 H 0.0 **** 0.06
23146 C 50.268998019710125 39.14876896508133 89.18601186769993 C 0.0 **** -0.24
23147 H 50.93936409131936 39.55880282408884 88.43048149246533 H 0.0 **** 0.06
23148 H 50.49696015843051 39.595488359154075 90.15409381202363 H 0.0 **** 0.06
23149 H 50.40364070581421 38.06824468014196 89.24244970545973 H 0.0 **** 0.06
23150 H 49.237342629301764 39.37226982708495 88.91657909952698 H 0.0 **** 0.06
23151 C 72.89931540205032 34.577943929443364 22.607067972766387 C 0.0 **** -0.24
23152 H 73.22366583005237 35.007191595019094 23.55549923647387 H 0.0 **** 0.06
23153 H 72.2720594928578 33.706857679497176 22.798790144759813 H 0.0 **** 0.06
23154 H 73.77112235576249 34.278869899321734 22.026480477451017 H 0.0 **** 0.06
23155 H 72.32868842847063 35.32151824759907 22.050319661483027 H 0.0 **** 0.06
23156 C 24.61517332410503 32.160118861603486 0.3198794834518992 C 0.0 **** -0.24
23157 H 25.1575026149724 32.07988738811341 1.2615553161232498 H 0.0 **** 0.06
23158 H 23.6521100857116 32.64115009581168 0.49546653900674187 H 0.0 **** 0.06
23159 H 24.454813575666066 31.164215504221275 -0.09306218379140319 H 0.0 **** 0.06
23160 H 25.195546094639496 32.75570273736415 -0.3839420805773557 H 0.0 **** 0.06
23161 C 75.98760303302072 78.68735604952565 52.672119858438066 C 0.0 **** -0.24
23162 H 76.75603766146193 78.19356524719905 52.076739748479525 H 0.0 **** 0.06
23163 H 76.05025143277203 78.34215961739079 53.70485712416118 H 0.0 **** 0.06
23164 H 75.00456356182846 78.44746186832509 52.267864117114584 H 0.0 **** 0.06
23165 H 76.14117316437043 79.76670929106456 52.63860183155505 H 0.0 **** 0.06
23166 C 1.757250390466794 6.115816910700474 73.08563548612969 C 0.0 **** -0.24
23167 H 1.4466484827739237 5.073823693320023 73.00783979711042 H 0.0 **** 0.06
23168 H 2.8377418099771603 6.163458174954258 73.22009795112547 H 0.0 **** 0.06
23169 H 1.2632712474482162 6.579786546268551 73.93943426905315 H 0.0 **** 0.06
23170 H 1.4809332636255021 6.645103805980256 72.17326338829267 H 0.0 **** 0.06
23171 C 26.93371050478609 22.31555651418313 74.16938312499161 C 0.0 **** -0.24
23172 H 26.486032551627034 21.369911599835177 73.86303897357101 H 0.0 **** 0.06
23173 H 26.67887124921475 23.08980786357776 73.44561632591768 H 0.0 **** 0.06
23174 H 28.017489064497852 22.205807495481736 74.21744354653555 H 0.0 **** 0.06
23175 H 26.55305484268621 22.596628949908535 75.15064101354096 H 0.0 **** 0.06
23176 C 107.10400535100825 14.29544335562042 55.66946197071989 C 0.0 **** -0.24
23177 H 107.0944410315524 15.138981304271567 56.358556832360044 H 0.0 **** 0.06
23178 H 106.14778830793588 13.774382898377894 55.72016260759576 H 0.0 **** 0.06
23179 H 107.90677728455682 13.610081202535184 55.94480107207283 H 0.0 **** 0.06
23180 H 107.267798810952 14.657152854666435 54.6543937437028 H 0.0 **** 0.06
23181 C 113.07613616372726 63.2593153663336 94.60585709977016 C 0.0 **** -0.24
23182 H 112.50407539679941 64.1568781883617 94.83924515468979 H 0.0 **** 0.06
23183 H 113.97568601576643 63.53381331389409 94.05480400311649 H 0.0 **** 0.06
23184 H 112.46738151508322 62.589547165173975 93.99793939089386 H 0.0 **** 0.06
23185 H 113.35634756966562 62.75614535584891 95.53109493833273 H 0.0 **** 0.06
23186 C 25.164094413401756 48.38847856865899 62.764284712649555 C 0.0 **** -0.24
23187 H 25.688800599534545 47.50260129933317 63.11901746270968 H 0.0 **** 0.06
23188 H 24.3503104373481 48.088940075249646 62.10294442740266 H 0.0 **** 0.06
23189 H 25.858488329520668 49.02800342559165 62.21926762792387 H 0.0 **** 0.06
23190 H 24.758195905675905 48.935654128788826 63.616012347765206 H 0.0 **** 0.06
23191 C 72.0084086829437 89.11953682797716 27.282389228641016 C 0.0 **** -0.24
23192 H 71.73907181300476 88.17536923574463 26.808027730578118 H 0.0 **** 0.06
23193 H 71.7143774378224 89.94714699530576 26.63648084842613 H 0.0 **** 0.06
23194 H 73.08562164685469 89.1490661391475 27.445373286311117 H 0.0 **** 0.06
23195 H 71.49359262034045 89.20456587127518 28.23992153257837 H 0.0 **** 0.06
23196 C 86.95543493227567 42.408459714767986 102.92184111823425 C 0.0 **** -0.24
23197 H 86.28206087669363 42.61518267175464 103.75307845628211 H 0.0 **** 0.06
23198 H 87.51524151103703 41.495557737967914 103.12665610954244 H 0.0 **** 0.06
23199 H 87.649056194016 43.240823989780296 102.7997310366132 H 0.0 **** 0.06
23200 H 86.3753811473558 42.282274459569095 102.00789887049939 H 0.0 **** 0.06
23201 C 105.91794463524585 83.55299400170944 51.69255543910111 C 0.0 **** -0.24
23202 H 106.96867207195285 83.82141416331203 51.80130758036688 H 0.0 **** 0.06
23203 H 105.3022744794977 84.26515104513754 52.242687440123916 H 0.0 **** 0.06
23204 H 105.75599018747565 82.55080932197376 52.08860613803492 H 0.0 **** 0.06
23205 H 105.64484180205713 83.57460147641422 50.637620597879106 H 0.0 **** 0.06
23206 C 84.47153548214504 106.02554913509948 75.88591528587702 C 0.0 **** -0.24
23207 H 84.90746821305783 107.02107992059862 75.97074270411258 H 0.0 **** 0.06
23208 H 83.40732551516405 106.07326394755654 76.11693913159402 H 0.0 **** 0.06
23209 H 84.96589089201913 105.35187615351921 76.58596387194365 H 0.0 **** 0.06
23210 H 84.6059396203112 105.65530830184755 74.86944893790846 H 0.0 **** 0.06
23211 C 25.905901177582848 83.96241393705188 91.05510715295429 C 0.0 **** -0.24
23212 H 25.121497232061415 83.21493157700786 91.17870007630745 H 0.0 **** 0.06
23213 H 26.462278029981064 84.0606594126815 91.98762698370086 H 0.0 **** 0.06
23214 H 25.45636706763156 84.9209592776844 90.79737582562956 H 0.0 **** 0.06
23215 H 26.582022907837143 83.6514392304102 90.25899555284883 H 0.0 **** 0.06
23216 C 27.280991043968015 68.09630729812824 0.5196989803904302 C 0.0 **** -0.24
23217 H 27.53372929321904 67.2496473427206 1.1572017717107599 H 0.0 **** 0.06
23218 H 26.92352496439628 67.73242222476037 -0.44390117563673925 H 0.0 **** 0.06
23219 H 28.167250043541173 68.71425554793453 0.3694837364091086 H 0.0 **** 0.06
23220 H 26.5005036393693 68.69024697201755 0.9956839242263698 H 0.0 **** 0.06
23221 C 47.96967116998829 73.02942884074619 38.25796400499701 C 0.0 **** -0.24
23222 H 48.060354718556084 72.99212683344513 39.34409322987099 H 0.0 **** 0.06
23223 H 47.5516260517978 72.08997627732268 37.89653113225427 H 0.0 **** 0.06
23224 H 48.954707519337546 73.18236834868048 37.81755346922762 H 0.0 **** 0.06
23225 H 47.31314638418928 73.85231442959446 37.97628857542341 H 0.0 **** 0.06
23226 C 5.935451467562302 79.71208970383759 10.858625583468665 C 0.0 **** -0.24
23227 H 5.127623155036247 79.73551336906291 11.589742053728685 H 0.0 **** 0.06
23228 H 6.5792495186083215 80.58055295905035 11.001766342618168 H 0.0 **** 0.06
23229 H 5.515620593666881 79.73286759247253 9.85344906891737 H 0.0 **** 0.06
23230 H 6.518473431447916 78.80139043065697 10.990741869535952 H 0.0 **** 0.06
23231 C 84.18613714149944 73.3834376749939 85.03126741210602 C 0.0 **** -0.24
23232 H 85.14588669330578 73.2593337046579 85.53202136681173 H 0.0 **** 0.06
23233 H 83.40124841847296 73.51146607625321 85.77740684439127 H 0.0 **** 0.06
23234 H 83.97380296324411 72.50031033369169 84.42779502000792 H 0.0 **** 0.06
23235 H 84.22361049097503 74.26264058537262 84.3878464172129 H 0.0 **** 0.06
23236 C 102.43068848954067 84.0874713301441 18.6906286949823 C 0.0 **** -0.24
23237 H 103.37948892826086 84.25656305419074 19.200762345200573 H 0.0 **** 0.06
23238 H 102.51825629633439 83.21612487826997 18.041365397144393 H 0.0 **** 0.06
23239 H 102.17933902741564 84.96380655774632 18.09318783230214 H 0.0 **** 0.06
23240 H 101.6480966370639 83.91376952726148 19.42860172568428 H 0.0 **** 0.06
23241 C 86.09457944228234 43.34292234825279 114.98393397540585 C 0.0 **** -0.24
23242 H 85.65416777336122 43.739758774623716 115.8982539095602 H 0.0 **** 0.06
23243 H 85.8303217368368 42.28930279771116 114.88118468024581 H 0.0 **** 0.06
23244 H 87.17879576025393 43.44344239516643 115.02924667392082 H 0.0 **** 0.06
23245 H 85.71294736490458 43.89809697667153 114.12636664401882 H 0.0 **** 0.06
23246 C 68.20884659314973 106.78858671611255 43.51429798722624 C 0.0 **** -0.24
23247 H 68.98669809830565 106.0526464493658 43.30743907895655 H 0.0 **** 0.06
23248 H 67.58781797722375 106.91855018389299 42.628088917889244 H 0.0 **** 0.06
23249 H 68.67095888045796 107.73980998988134 43.777769177904176 H 0.0 **** 0.06
23250 H 67.59193564620531 106.44197367962028 44.34370674476921 H 0.0 **** 0.06
23251 C 3.630600477580387 37.87122746705518 116.01737154709684 C 0.0 **** -0.24
23252 H 2.6868349978218617 38.32079417774611 115.7075714490866 H 0.0 **** 0.06
23253 H 4.457852848936 38.500231293166394 115.68897962530167 H 0.0 **** 0.06
23254 H 3.7250456349158583 36.881738314636806 115.57062120408287 H 0.0 **** 0.06
23255 H 3.6506581587525773 37.78290375377284 117.10440801508906 H 0.0 **** 0.06
23256 C 27.809791980832273 102.53883220462245 58.6103010030776 C 0.0 **** -0.24
23257 H 27.450647618472146 102.17715599530618 57.646393713343834 H 0.0 **** 0.06
23258 H 28.423768185122555 101.76974047978206 59.0804284216972 H 0.0 **** 0.06
23259 H 26.958969189130414 102.76740690447372 59.25192841604251 H 0.0 **** 0.06
23260 H 28.40551568944045 103.43909129357274 58.4613635269645 H 0.0 **** 0.06
23261 C 59.969978181240116 59.6896260065781 67.0657731615162 C 0.0 **** -0.24
23262 H 60.17458984463624 59.2560090390045 66.08617424159911 H 0.0 **** 0.06
23263 H 60.636737141903005 60.534860132203214 67.23548854759122 H 0.0 **** 0.06
23264 H 60.13314536632789 58.93705483071616 67.8364719337367 H 0.0 **** 0.06
23265 H 58.93499113003379 60.02955684031915 67.10302102646418 H 0.0 **** 0.06
23266 C 11.829708113910698 28.543409214472916 92.9096083530136 C 0.0 **** -0.24
23267 H 11.190841848850852 27.93189373168198 93.54750202128218 H 0.0 **** 0.06
23268 H 12.76507019494602 28.015744466885536 92.7191579693426 H 0.0 **** 0.06
23269 H 12.039731780681336 29.49045880786926 93.40759002811993 H 0.0 **** 0.06
23270 H 11.321210809453305 28.734533249192936 91.96445773972411 H 0.0 **** 0.06
23271 C 63.6200569771529 7.18116296856067 10.476156589379364 C 0.0 **** -0.24
23272 H 63.766115775273704 7.71307919941961 11.416138772388528 H 0.0 **** 0.06
23273 H 62.893878193302356 7.717484431106186 9.86414979576482 H 0.0 **** 0.06
23274 H 63.250138904651806 6.176038884215927 10.681285396973863 H 0.0 **** 0.06
23275 H 64.56859830417574 7.116838166444495 9.943593725286199 H 0.0 **** 0.06
23276 C 112.03549641684018 74.62115147013182 9.353550552112324 C 0.0 **** -0.24
23277 H 112.0765939057085 75.43639679828189 10.076278476436102 H 0.0 **** 0.06
23278 H 112.9828344914803 74.5632142370296 8.817269435335675 H 0.0 **** 0.06
23279 H 111.22648138651533 74.80465235644488 8.64604103809242 H 0.0 **** 0.06
23280 H 111.85510479041776 73.68203143343698 9.876098113859996 H 0.0 **** 0.06
23281 C 65.23704206744912 101.36663118442746 15.704314803593618 C 0.0 **** -0.24
23282 H 64.96513588142551 102.24385157747972 16.29102337881551 H 0.0 **** 0.06
23283 H 66.14840622286505 100.92709701671797 16.11113138326712 H 0.0 **** 0.06
23284 H 65.40566858390889 101.66041577730604 14.6684744408213 H 0.0 **** 0.06
23285 H 64.42978991589908 100.63509164496853 15.74777133268634 H 0.0 **** 0.06
23286 C 86.52543063656708 21.918811130376753 52.233924455033474 C 0.0 **** -0.24
23287 H 85.8570838867052 21.84980776810795 51.375660087216175 H 0.0 **** 0.06
23288 H 86.64898498812528 20.931179427672646 52.678451756813786 H 0.0 **** 0.06
23289 H 86.10053148890239 22.599501228907172 52.97129426960423 H 0.0 **** 0.06
23290 H 87.49604667394698 22.29410530563132 51.90811865845393 H 0.0 **** 0.06
23291 C 102.70556719133174 102.40092824200863 8.546028073710339 C 0.0 **** -0.24
23292 H 101.78731565469457 101.97623495581121 8.950951847843864 H 0.0 **** 0.06
23293 H 103.54567584859532 102.12061377761566 9.182454730995573 H 0.0 **** 0.06
23294 H 102.62030092115074 103.48637876104664 8.513297172673656 H 0.0 **** 0.06
23295 H 102.86870384307363 102.01860441237014 7.53858652742457 H 0.0 **** 0.06
23296 C 15.866753596239107 79.45022613519058 81.73583853687177 C 0.0 **** -0.24
23297 H 15.169135685408776 80.17349948708511 82.15837077397376 H 0.0 **** 0.06
23298 H 16.40549378373555 79.90824821442746 80.90659651607001 H 0.0 **** 0.06
23299 H 15.315421652042147 78.58160086667885 81.37581937246966 H 0.0 **** 0.06
23300 H 16.57510827051567 79.13912950856914 82.50285616444643 H 0.0 **** 0.06
23301 C 90.90647448951316 12.284912718472075 100.3866773073079 C 0.0 **** -0.24
23302 H 90.22558739278807 13.030933341346422 100.7972142674642 H 0.0 **** 0.06
23303 H 91.32805707748051 11.6929659112741 101.19915356964788 H 0.0 **** 0.06
23304 H 91.70927295190856 12.785228489564872 99.84547650945089 H 0.0 **** 0.06
23305 H 90.3605870695084 11.632670999324453 99.7056764413978 H 0.0 **** 0.06
23306 C 13.154133013207684 117.9023649992038 25.703397153805838 C 0.0 **** -0.24
23307 H 12.392903105475028 118.64475604337277 25.944318649105533 H 0.0 **** 0.06
23308 H 13.984773549815657 117.99428973479753 26.403684061372736 H 0.0 **** 0.06
23309 H 13.513312587229223 118.06732091745943 24.687884912749276 H 0.0 **** 0.06
23310 H 12.723518669831265 116.90359226439485 25.77850980830786 H 0.0 **** 0.06
23311 C 36.20176590121113 46.6504393606065 6.718512404015446 C 0.0 **** -0.24
23312 H 35.61611666281593 46.134953698666294 7.4789859461949675 H 0.0 **** 0.06
23313 H 36.63835756323451 45.91841006132259 6.038525316406144 H 0.0 **** 0.06
23314 H 36.996653043982974 47.22132526522623 7.197379006421642 H 0.0 **** 0.06
23315 H 35.555367231537275 47.32709621951162 6.158337515515095 H 0.0 **** 0.06
23316 C 89.60174400506673 5.931132603276412 43.824942518394835 C 0.0 **** -0.24
23317 H 90.16404503480658 6.191525871693161 44.72187366882466 H 0.0 **** 0.06
23318 H 89.22853345014369 4.90982823315567 43.91365530441638 H 0.0 **** 0.06
23319 H 90.25293674020818 6.005320402783623 42.953412357732844 H 0.0 **** 0.06
23320 H 88.76235247002296 6.615923354393608 43.710142845409536 H 0.0 **** 0.06
23321 C 3.3716139594259573 18.28903249604243 99.9908474913394 C 0.0 **** -0.24
23322 H 2.600623903346957 17.566149261145732 100.25828300707511 H 0.0 **** 0.06
23323 H 4.33703470347308 17.786071176789644 99.93560923512044 H 0.0 **** 0.06
23324 H 3.4117828328867006 19.07280012379589 100.74777442302448 H 0.0 **** 0.06
23325 H 3.1346823518815654 18.729871822022897 99.02346413089091 H 0.0 **** 0.06
23326 C 92.61136928898162 48.20343822391916 40.12368756297644 C 0.0 **** -0.24
23327 H 92.83251753041787 48.95718166571608 40.87891587790591 H 0.0 **** 0.06
23328 H 93.43044442823063 47.48651536658031 40.07634790076395 H 0.0 **** 0.06
23329 H 92.49325629340626 48.68568775387471 39.15397409623779 H 0.0 **** 0.06
23330 H 91.68876261263617 47.68597922925807 40.38698148589248 H 0.0 **** 0.06
23331 C 76.8704637667546 102.32488645757968 27.826554229397473 C 0.0 **** -0.24
23332 H 77.30238669351701 101.88751931351587 26.926124239753435 H 0.0 **** 0.06
23333 H 76.6346719221431 103.37314595458108 27.644582334885172 H 0.0 **** 0.06
23334 H 77.58527192466349 102.24903471876888 28.645136725532723 H 0.0 **** 0.06
23335 H 75.95818665709712 101.78731011738967 28.08796924263781 H 0.0 **** 0.06
23336 C 76.06812128603849 95.81336495133357 99.15911862848841 C 0.0 **** -0.24
23337 H 75.25435822008137 96.53628516188726 99.11622892553385 H 0.0 **** 0.06
23338 H 76.41406142230699 95.59440234577332 98.14932888730576 H 0.0 **** 0.06
23339 H 75.71284314823708 94.89583833107534 99.6296693661541 H 0.0 **** 0.06
23340 H 76.89023988830968 96.22637843467464 99.74467179223564 H 0.0 **** 0.06
23341 C 116.47570671993692 116.96532170806728 87.81772258254051 C 0.0 **** -0.24
23342 H 116.68407792069377 117.59619301230342 86.95386704849119 H 0.0 **** 0.06
23343 H 115.45954852725635 117.15277948090664 88.16642410363943 H 0.0 **** 0.06
23344 H 117.18201621082747 117.19694321590379 88.61495087415165 H 0.0 **** 0.06
23345 H 116.57710856707692 115.91830398199535 87.53502129308407 H 0.0 **** 0.06
23346 C 60.39404496032708 100.20067507767033 113.95604838172171 C 0.0 **** -0.24
23347 H 60.31800204780549 99.87395211396279 112.91874988368514 H 0.0 **** 0.06
23348 H 61.18482700075276 99.64127201856388 114.45604394235944 H 0.0 **** 0.06
23349 H 59.446038607936345 100.02354746170579 114.4626016857264 H 0.0 **** 0.06
23350 H 60.628114931205744 101.26578160839676 113.98457925044059 H 0.0 **** 0.06
23351 C 19.01514229823934 83.89803400060663 96.12709500515786 C 0.0 **** -0.24
23352 H 20.072702307076227 84.10543320092629 95.96044557055407 H 0.0 **** 0.06
23353 H 18.625120047930267 83.31060016745548 95.29699284422219 H 0.0 **** 0.06
23354 H 18.467744848294416 84.83895188551972 96.1958207502532 H 0.0 **** 0.06
23355 H 18.896456116658385 83.34035465289216 97.05639417067812 H 0.0 **** 0.06
23356 C 38.20670555735563 21.563468181634136 15.74841855245652 C 0.0 **** -0.24
23357 H 39.25924396770802 21.600480773697853 15.469830223913451 H 0.0 **** 0.06
23358 H 37.79322246050964 20.591048876714808 15.479087804001047 H 0.0 **** 0.06
23359 H 37.663795672515676 22.348518046074872 15.22071293380327 H 0.0 **** 0.06
23360 H 38.11006883763042 21.714584162314424 16.82361615343779 H 0.0 **** 0.06
23361 C 74.90154611374038 95.69185937230017 49.472568595015346 C 0.0 **** -0.24
23362 H 75.29068622640244 96.06164751944712 50.421797404597285 H 0.0 **** 0.06
23363 H 75.10512067406859 94.62387870241955 49.3885429207288 H 0.0 **** 0.06
23364 H 75.3850484785305 96.22043410611687 48.65101531980907 H 0.0 **** 0.06
23365 H 73.82605371087715 95.86123181462523 49.431245763210654 H 0.0 **** 0.06
23366 C 26.71243334873236 70.88099036847541 114.41986010830442 C 0.0 **** -0.24
23367 H 27.648490005624183 70.59190453417716 113.9403989777978 H 0.0 **** 0.06
23368 H 26.040955938322924 70.02284405159358 114.45133336988046 H 0.0 **** 0.06
23369 H 26.24725878284221 71.68694417100787 113.85254745860554 H 0.0 **** 0.06
23370 H 26.91547435598983 71.222136620031 115.43512173413087 H 0.0 **** 0.06
23371 C 44.27708754909307 69.51770657751385 71.86817158887885 C 0.0 **** -0.24
23372 H 43.742923252356775 69.68139141625537 70.93219917969606 H 0.0 **** 0.06
23373 H 43.56462465731752 69.26089759735231 72.65232040431374 H 0.0 **** 0.06
23374 H 44.81104365500045 70.42650597408723 72.14512479987164 H 0.0 **** 0.06
23375 H 44.988691913403244 68.70219701622875 71.74212831155515 H 0.0 **** 0.06
23376 C 28.34123715084243 60.47892432124022 51.222046593573516 C 0.0 **** -0.24
23377 H 27.466004997070115 60.029935332888705 51.691882895009236 H 0.0 **** 0.06
23378 H 29.111085140729358 60.64815427682644 51.974329660642624 H 0.0 **** 0.06
23379 H 28.061024092863818 61.42978193681855 50.76858654418224 H 0.0 **** 0.06
23380 H 28.724459349124032 59.8090227015532 50.45199908524994 H 0.0 **** 0.06
23381 C 58.760666327026705 60.73141355003015 23.926075707450316 C 0.0 **** -0.24
23382 H 58.69558772297852 59.91344531255795 23.2091320130612 H 0.0 **** 0.06
23383 H 59.71824817344052 61.24078725514713 23.809409009651063 H 0.0 **** 0.06
23384 H 58.682077641277395 60.33362483711347 24.937923787018434 H 0.0 **** 0.06
23385 H 57.949421039632576 61.436428201414124 23.74788781579059 H 0.0 **** 0.06
23386 C 23.1345487936606 83.29898482074822 30.010100852850428 C 0.0 **** -0.24
23387 H 22.923795563695137 82.32142580962599 30.444234529215066 H 0.0 **** 0.06
23388 H 24.174381913530397 83.335194419012 29.685770008393618 H 0.0 **** 0.06
23389 H 22.95805029455886 84.07380468737713 30.755938639462386 H 0.0 **** 0.06
23390 H 22.480448833721994 83.46314189539868 29.152709243031836 H 0.0 **** 0.06
23391 C 2.654594138227907 5.424110584699715 76.93442144640574 C 0.0 **** -0.24
23392 H 3.734463464018461 5.336166561479958 77.04404592571777 H 0.0 **** 0.06
23393 H 2.4087999825616464 5.599979350937987 75.88683611862822 H 0.0 **** 0.06
23394 H 2.294548845001941 6.25844332461851 77.53681655400769 H 0.0 **** 0.06
23395 H 2.1788349173936012 4.50176426190561 77.26994653378674 H 0.0 **** 0.06
23396 C 42.97063152897691 20.5225359054989 61.60480480351953 C 0.0 **** -0.24
23397 H 42.419882702322084 19.92660782807549 60.87749057504604 H 0.0 **** 0.06
23398 H 43.619093733878856 21.225234988334137 61.081028736918995 H 0.0 **** 0.06
23399 H 43.57508148913394 19.866110950443073 62.229558357781826 H 0.0 **** 0.06
23400 H 42.26753979001345 21.073342967991437 62.22946562787996 H 0.0 **** 0.06
23401 C 116.08460987517087 86.54253851428535 13.349692703773883 C 0.0 **** -0.24
23402 H 116.1621599436499 87.51216178852647 13.84274476118145 H 0.0 **** 0.06
23403 H 115.87162218034912 85.77389329195637 14.09351755711208 H 0.0 **** 0.06
23404 H 117.024571013368 86.31360176581853 12.848145540335338 H 0.0 **** 0.06
23405 H 115.27882156263061 86.57294781168866 12.615910671004258 H 0.0 **** 0.06
23406 C 81.04239747323166 84.34495639734507 93.06585083733404 C 0.0 **** -0.24
23407 H 80.9134513621861 83.56625880546326 93.81766633142666 H 0.0 **** 0.06
23408 H 80.21619001872378 85.0528864584443 93.1307417736204 H 0.0 **** 0.06
23409 H 81.05832270947698 83.89254590071309 92.0746068396451 H 0.0 **** 0.06
23410 H 81.98337685594566 84.86691992307499 93.24159635703342 H 0.0 **** 0.06
23411 C 43.547539254394636 58.74672776231182 66.53898316483972 C 0.0 **** -0.24
23412 H 43.68069952123169 58.364809843114784 65.52704908282672 H 0.0 **** 0.06
23413 H 44.36341558443905 58.39393745227309 67.16992879371156 H 0.0 **** 0.06
23414 H 42.598226458509515 58.392191847346965 66.94006177237029 H 0.0 **** 0.06
23415 H 43.548442544787974 59.8365656527059 66.51838874821209 H 0.0 **** 0.06
23416 C 78.96507470705083 65.08601582445169 90.20286291580265 C 0.0 **** -0.24
23417 H 79.06037932189645 66.04019846628586 89.68514769018333 H 0.0 **** 0.06
23418 H 78.43854839079029 65.23388013825078 91.14560982687675 H 0.0 **** 0.06
23419 H 79.95689433378348 64.67942420855945 90.40018662641157 H 0.0 **** 0.06
23420 H 78.40473282849922 64.38864598801646 89.57938082756601 H 0.0 **** 0.06
23421 C 28.636691255281704 44.47056348183912 24.87939799256091 C 0.0 **** -0.24
23422 H 28.070846410364425 44.025556104101554 25.698157201572798 H 0.0 **** 0.06
23423 H 27.950471217333444 44.789028912869526 24.094513024422128 H 0.0 **** 0.06
23424 H 29.332708504675168 43.73310864209628 24.477600765265606 H 0.0 **** 0.06
23425 H 29.192916221016702 45.3318865379307 25.248670144007804 H 0.0 **** 0.06
23426 C 99.52061953009854 15.30805888847937 8.241591250235302 C 0.0 **** -0.24
23427 H 100.52469982011002 15.437416041045942 7.835310341085886 H 0.0 **** 0.06
23428 H 99.26120285282568 14.249148800420596 8.235345221706353 H 0.0 **** 0.06
23429 H 98.80733660359303 15.860925298816344 7.630305091041578 H 0.0 **** 0.06
23430 H 99.49253286349199 15.68391462631918 9.263835893425295 H 0.0 **** 0.06
23431 C 106.5476355470681 118.84523672340774 85.3577590907253 C 0.0 **** -0.24
23432 H 107.37138623587845 118.52238248752904 84.72114263397987 H 0.0 **** 0.06
23433 H 106.4576080238368 118.16696453254964 86.20733342924774 H 0.0 **** 0.06
23434 H 105.62074209248559 118.83571659328278 84.78498827047005 H 0.0 **** 0.06
23435 H 106.74188502146313 119.85514019207076 85.71810428472045 H 0.0 **** 0.06
23436 C 58.6806072845545 62.12345968551597 76.19384500989412 C 0.0 **** -0.24
23437 H 58.828289242742244 61.47505938628302 75.33102314070018 H 0.0 **** 0.06
23438 H 57.63850451866392 62.07242300949099 76.5115520058637 H 0.0 **** 0.06
23439 H 58.92755231973149 63.15070821277237 75.92263055558965 H 0.0 **** 0.06
23440 H 59.326103691575526 61.79759995145588 77.00866665558732 H 0.0 **** 0.06
23441 C 7.0175999325164184 95.44697554674661 71.79842010515435 C 0.0 **** -0.24
23442 H 7.080760412290687 96.49679020356444 71.51143834580367 H 0.0 **** 0.06
23443 H 7.190548684174132 94.82073352193089 70.92295894126559 H 0.0 **** 0.06
23444 H 6.027721891141425 95.24102440146345 72.20329051214756 H 0.0 **** 0.06
23445 H 7.772930810587951 95.23185710730525 72.55447758290939 H 0.0 **** 0.06
23446 C 13.456662855404062 49.81692273296699 27.472950470358 C 0.0 **** -0.24
23447 H 13.012252795502462 50.812244645985515 27.444095491239466 H 0.0 **** 0.06
23448 H 13.848458053795753 49.62200994235894 28.4709945904184 H 0.0 **** 0.06
23449 H 14.266637915602672 49.7604715635984 26.746212419130018 H 0.0 **** 0.06
23450 H 12.696558844794481 49.07411358413697 27.2290322783424 H 0.0 **** 0.06
23451 C 81.96122930259236 45.85177421864884 78.4892204397957 C 0.0 **** -0.24
23452 H 81.79283075281921 46.253194293164 79.4885819501059 H 0.0 **** 0.06
23453 H 82.65094405201796 45.0098976243857 78.54691719423334 H 0.0 **** 0.06
23454 H 82.38720759809692 46.62801456295276 77.8533069190685 H 0.0 **** 0.06
23455 H 81.01337140154797 45.517126376249024 78.06744940872912 H 0.0 **** 0.06
23456 C 47.215918107682796 103.4433371342025 98.24891363962519 C 0.0 **** -0.24
23457 H 46.314705297926416 103.0079045711768 97.8168435696524 H 0.0 **** 0.06
23458 H 46.95672527838808 104.35643870864843 98.78475704859017 H 0.0 **** 0.06
23459 H 47.92295501773948 103.67796922767357 97.45262838188683 H 0.0 **** 0.06
23460 H 47.668676077089714 102.73200203009185 98.93831196569442 H 0.0 **** 0.06
23461 C 60.32135483330268 91.23741711823587 75.44965870282954 C 0.0 **** -0.24
23462 H 59.28147843095769 90.96307056964079 75.26624187118034 H 0.0 **** 0.06
23463 H 60.83429196538114 91.37098803648257 74.49686286090594 H 0.0 **** 0.06
23464 H 60.809507005522335 90.44643897853578 76.0180815617025 H 0.0 **** 0.06
23465 H 60.356966621669784 92.16748099326256 76.01543291371297 H 0.0 **** 0.06
23466 C 46.11001239738542 14.028768305838042 60.410375965918604 C 0.0 **** -0.24
23467 H 46.45207386506931 14.990143500445157 60.793941178680825 H 0.0 **** 0.06
23468 H 46.674058226339184 13.774992848264048 59.51281265721889 H 0.0 **** 0.06
23469 H 45.049076024556655 14.09167655529626 60.167754548674736 H 0.0 **** 0.06
23470 H 46.26510525720808 13.26019256165796 61.16743942963814 H 0.0 **** 0.06
23471 C 62.1553235975832 109.12283115011837 61.79461565180574 C 0.0 **** -0.24
23472 H 61.31513524900782 108.74614006558474 62.37808968197376 H 0.0 **** 0.06
23473 H 62.18662662250318 110.21046937008036 61.86280524543719 H 0.0 **** 0.06
23474 H 62.03519212179048 108.82778522315402 60.75216234157824 H 0.0 **** 0.06
23475 H 63.08434039703129 108.70692994165447 62.18540533823395 H 0.0 **** 0.06
23476 C 54.588777679186556 102.00047456762798 54.94596774455931 C 0.0 **** -0.24
23477 H 54.953958806584616 102.11246920415908 55.9667730665966 H 0.0 **** 0.06
23478 H 54.72133317253422 100.9670510982873 54.624465660520116 H 0.0 **** 0.06
23479 H 55.14850311139795 102.66213542552515 54.28551193885812 H 0.0 **** 0.06
23480 H 53.53053374650126 102.25933113995654 54.90786739093136 H 0.0 **** 0.06
23481 C 13.226164161886345 108.20277897191377 100.41914854345947 C 0.0 **** -0.24
23482 H 12.237198116551355 108.35267581443884 99.98481373080313 H 0.0 **** 0.06
23483 H 13.135052795606015 108.09426257879093 101.50064823149299 H 0.0 **** 0.06
23484 H 13.857047267581265 109.06161659613599 100.19213542566735 H 0.0 **** 0.06
23485 H 13.673022740815071 107.30118310681985 100.00027998387651 H 0.0 **** 0.06
23486 C 73.07874042896555 65.67274086295734 32.14258128908124 C 0.0 **** -0.24
23487 H 73.9405651596253 65.00607557670293 32.12363224635487 H 0.0 **** 0.06
23488 H 72.17979203347176 65.11152684142172 31.884474205931383 H 0.0 **** 0.06
23489 H 73.22462491250133 66.47669511966814 31.42099771678174 H 0.0 **** 0.06
23490 H 72.96887768457947 66.09620651821879 33.140462810242866 H 0.0 **** 0.06
23491 C 54.54089696054632 116.06425526826564 3.969360114164232 C 0.0 **** -0.24
23492 H 54.880803224922204 115.16572030464062 3.4542929095627386 H 0.0 **** 0.06
23493 H 54.18278022087935 115.79890156995208 4.964099471251217 H 0.0 **** 0.06
23494 H 53.73161094540336 116.5237849077073 3.401452325596537 H 0.0 **** 0.06
23495 H 55.36848506035426 116.76844363283041 4.056194821729619 H 0.0 **** 0.06
23496 C 40.268078510498384 34.40372856928437 111.86088150971374 C 0.0 **** -0.24
23497 H 41.35152222569269 34.52030335314441 111.8786180433009 H 0.0 **** 0.06
23498 H 39.8233270462334 35.228874075362654 111.3040003392148 H 0.0 **** 0.06
23499 H 39.88618703354018 34.40702566659161 112.88173585384818 H 0.0 **** 0.06
23500 H 40.01225484938848 33.460112365354234 111.37945835344449 H 0.0 **** 0.06
23501 C 71.54381247003215 82.44361164582384 81.38700253496089 C 0.0 **** -0.24
23502 H 71.87372946942219 83.24131612114041 82.05236777321025 H 0.0 **** 0.06
23503 H 70.97393421443701 81.70834345923234 81.95563165217658 H 0.0 **** 0.06
23504 H 72.41239137864557 81.9627399687763 80.93752210673819 H 0.0 **** 0.06
23505 H 70.91453969843093 82.86237534642862 80.60180810169595 H 0.0 **** 0.06
23506 C 24.282579248418926 96.23148514504487 50.96764347195627 C 0.0 **** -0.24
23507 H 24.81093879541791 96.81303525228896 51.722809151774676 H 0.0 **** 0.06
23508 H 23.223871872648914 96.49246943709738 50.98305534924556 H 0.0 **** 0.06
23509 H 24.398424600416973 95.16814853972403 51.18093616999582 H 0.0 **** 0.06
23510 H 24.69703439185625 96.4512911694834 49.98369945800094 H 0.0 **** 0.06
23511 C 58.54880667369422 92.00345389737186 71.54456714799375 C 0.0 **** -0.24
23512 H 57.64776424146107 91.38993783637181 71.55014922814746 H 0.0 **** 0.06
23513 H 59.39605876456154 91.40274495273587 71.2128394518958 H 0.0 **** 0.06
23514 H 58.74023394773875 92.37738018929849 72.55022776647081 H 0.0 **** 0.06
23515 H 58.4109144176042 92.84378627168041 70.8640858455706 H 0.0 **** 0.06
23516 C 93.0639347708759 99.39916433932339 117.55410834087424 C 0.0 **** -0.24
23517 H 94.03515947806474 99.6069463085351 118.00443139973635 H 0.0 **** 0.06
23518 H 93.20770507719644 98.9779604473672 116.55896967410227 H 0.0 **** 0.06
23519 H 92.49302223090606 100.32510768263731 117.47871989216586 H 0.0 **** 0.06
23520 H 92.52062425278098 98.687350043072 118.17569233794988 H 0.0 **** 0.06
23521 C 37.646032111788905 102.36717341327395 88.25759658256231 C 0.0 **** -0.24
23522 H 38.706957899300896 102.12300616032817 88.21267061755805 H 0.0 **** 0.06
23523 H 37.29128221072332 102.63060887581611 87.26099141732803 H 0.0 **** 0.06
23524 H 37.496180758363785 103.20985710148202 88.9319105257764 H 0.0 **** 0.06
23525 H 37.09036899029336 101.50403416314731 88.62520472530457 H 0.0 **** 0.06
23526 C 50.313206005991745 67.88363069876465 41.12085062908656 C 0.0 **** -0.24
23527 H 49.73180051039269 67.01958424932891 40.79765408135313 H 0.0 **** 0.06
23528 H 51.18706367948083 67.99356732342912 40.478189512469754 H 0.0 **** 0.06
23529 H 50.63585499125183 67.73920181193881 42.15211030493771 H 0.0 **** 0.06
23530 H 49.69782197520446 68.78061423921926 41.05474037730704 H 0.0 **** 0.06
23531 C 114.17895487185052 18.202020483164517 116.89732030092725 C 0.0 **** -0.24
23532 H 114.36883638650042 17.12873173255187 116.9011716010944 H 0.0 **** 0.06
23533 H 113.19275407883109 18.39416310490276 116.47556120339212 H 0.0 **** 0.06
23534 H 114.93697571726955 18.70217954173276 116.29487539939723 H 0.0 **** 0.06
23535 H 114.21848226694146 18.58015411484058 117.91826302154223 H 0.0 **** 0.06
23536 C 101.06012393930456 35.6834248941784 24.761339421483115 C 0.0 **** -0.24
23537 H 101.34202979572262 34.63078930194959 24.711428714830106 H 0.0 **** 0.06
23538 H 100.98121097555196 35.98768718092262 25.804858349292516 H 0.0 **** 0.06
23539 H 100.09991274545155 35.82455812604594 24.26645724467531 H 0.0 **** 0.06
23540 H 101.81879728257127 36.2863271203865 24.262354220563537 H 0.0 **** 0.06
23541 C 31.566916829720583 50.6576905849404 32.556088158517944 C 0.0 **** -0.24
23542 H 30.528328388807495 50.984984055129225 32.506980016398934 H 0.0 **** 0.06
23543 H 31.7482820115236 50.166811065265684 33.51339880082451 H 0.0 **** 0.06
23544 H 32.22514697874692 51.52152097758648 32.46056474938945 H 0.0 **** 0.06
23545 H 31.7663434181423 49.95738271817651 31.744753752700518 H 0.0 **** 0.06
23546 C 60.12388621380624 66.42605989344526 104.96390344794617 C 0.0 **** -0.24
23547 H 59.50811946808194 66.80783067931299 104.15025863427863 H 0.0 **** 0.06
23548 H 61.017864976673586 67.04296007793772 105.06331568842424 H 0.0 **** 0.06
23549 H 60.41438456197904 65.39754605927493 104.74696649516414 H 0.0 **** 0.06
23550 H 59.556075275027844 66.45561353975899 105.89402059458479 H 0.0 **** 0.06
23551 C 99.80054514253715 93.05018175893935 92.25221188792978 C 0.0 **** -0.24
23552 H 99.82928390768734 92.29798217792151 91.46386587004278 H 0.0 **** 0.06
23553 H 100.12439310141616 94.00989049777377 91.85034603335237 H 0.0 **** 0.06
23554 H 100.46490773597912 92.75108201504756 93.06325398770682 H 0.0 **** 0.06
23555 H 98.78206511199153 93.13903824416016 92.63180850436655 H 0.0 **** 0.06
23556 C 50.3879518120748 92.37881830966231 20.771937203866315 C 0.0 **** -0.24
23557 H 51.23754501737032 92.81132149938597 21.30121123316613 H 0.0 **** 0.06
23558 H 50.53306628542317 92.49517348121842 19.697100036433483 H 0.0 **** 0.06
23559 H 49.474101486858565 92.88948327369212 21.074263848402182 H 0.0 **** 0.06
23560 H 50.31054250477524 91.31846728688191 21.01582688660534 H 0.0 **** 0.06
23561 C 22.961923661925994 104.88182197991873 81.3352549731081 C 0.0 **** -0.24
23562 H 23.20147536329489 104.33369091569699 80.42392248543698 H 0.0 **** 0.06
23563 H 23.157869071520167 105.9436878587062 81.18197451129168 H 0.0 **** 0.06
23564 H 23.58053777975468 104.512608516716 82.15356945577736 H 0.0 **** 0.06
23565 H 21.910347034119894 104.73819355345034 81.58067085766811 H 0.0 **** 0.06
23566 C 32.252590092024775 4.4939077675703345 12.833938752470118 C 0.0 **** -0.24
23567 H 32.133502275694696 4.767759341134607 13.88203843890372 H 0.0 **** 0.06
23568 H 32.66226938251964 3.485175118946259 12.76676735624838 H 0.0 **** 0.06
23569 H 32.931680597286004 5.194924983956213 12.349514901256896 H 0.0 **** 0.06
23570 H 31.28262855341751 4.525792846462437 12.337515007165933 H 0.0 **** 0.06
23571 C 41.47506734302107 68.60228840146806 114.89528025629062 C 0.0 **** -0.24
23572 H 40.40002190156355 68.67394080480042 115.06282084653115 H 0.0 **** 0.06
23573 H 41.67560334026018 67.81920170060141 114.16311894635203 H 0.0 **** 0.06
23574 H 41.97328429909089 68.35860988767186 115.83296844699149 H 0.0 **** 0.06
23575 H 41.84888125846629 69.55462377241054 114.52183420628305 H 0.0 **** 0.06
23576 C 39.45895379914042 16.16474908025283 105.47741481648077 C 0.0 **** -0.24
23577 H 39.983511774939096 16.788985916837362 104.75355646558992 H 0.0 **** 0.06
23578 H 39.632157022068256 15.113392218055456 105.24360063093525 H 0.0 **** 0.06
23579 H 38.39090473003496 16.376295093612423 105.43272697872126 H 0.0 **** 0.06
23580 H 39.83085467434254 16.37979118361924 106.47943539065912 H 0.0 **** 0.06
23581 C 65.56138363082005 101.70274111188922 20.722119991204863 C 0.0 **** -0.24
23582 H 66.21899360902756 101.4937801751268 19.878063098124017 H 0.0 **** 0.06
23583 H 65.63667303666836 102.75711079973445 20.98954415138735 H 0.0 **** 0.06
23584 H 65.85641169187716 101.08865363971086 21.57302456498229 H 0.0 **** 0.06
23585 H 64.53274010169315 101.47092138016512 20.445789252255736 H 0.0 **** 0.06
23586 C 53.35886272637134 92.08137143846102 36.22345016256958 C 0.0 **** -0.24
23587 H 53.81838332651603 91.94781416550393 37.203081662474716 H 0.0 **** 0.06
23588 H 53.46156751869128 93.1215433191669 35.91324411749346 H 0.0 **** 0.06
23589 H 52.302315612436985 91.82129178289819 36.27953294124163 H 0.0 **** 0.06
23590 H 53.85338676639472 91.43506584294585 35.498894043178694 H 0.0 **** 0.06
23591 C 19.285618653495675 23.438637776572854 20.35752194335737 C 0.0 **** -0.24
23592 H 18.452888290629403 24.1413624069395 20.387635224981693 H 0.0 **** 0.06
23593 H 19.31702751137101 22.87348449213281 21.289672085454868 H 0.0 **** 0.06
23594 H 20.21929492554696 23.9867838975182 20.232846371394828 H 0.0 **** 0.06
23595 H 19.151197558712227 22.752787931342034 19.520778519512362 H 0.0 **** 0.06
23596 C 54.72312038057313 113.41282195513008 76.930051349736 C 0.0 **** -0.24
23597 H 55.443089240855606 112.66736729965142 77.27034220875169 H 0.0 **** 0.06
23598 H 54.44926252819153 113.20645232008476 75.89530643902236 H 0.0 **** 0.06
23599 H 55.169759177618765 114.40517194536488 76.99705797696066 H 0.0 **** 0.06
23600 H 53.833999107863626 113.37197296570304 77.55835320816203 H 0.0 **** 0.06
23601 C 39.57135227506819 84.91247484675367 66.31471735410935 C 0.0 **** -0.24
23602 H 39.081661494049825 84.55204779527307 67.21927793192398 H 0.0 **** 0.06
23603 H 40.556196641781014 84.4528433655043 66.2265125117797 H 0.0 **** 0.06
23604 H 39.68032111201717 85.99626518619718 66.36823309354264 H 0.0 **** 0.06
23605 H 38.968158302700914 84.65049520164581 65.44510692329717 H 0.0 **** 0.06
23606 C 34.45994072119362 46.36319866506622 85.15923520806524 C 0.0 **** -0.24
23607 H 34.24355766556272 45.53231028131819 85.83087458122398 H 0.0 **** 0.06
23608 H 33.9288917872089 46.21575883833421 84.21799178077035 H 0.0 **** 0.06
23609 H 35.53269422509351 46.405794418581564 84.9682976590492 H 0.0 **** 0.06
23610 H 34.135072512206136 47.29603305158301 85.61914734397268 H 0.0 **** 0.06
23611 C 64.52836972759764 76.1568385585233 115.7458222608638 C 0.0 **** -0.24
23612 H 63.499362245777064 76.51121294476067 115.69473503951434 H 0.0 **** 0.06
23613 H 64.58541035628414 75.30149149133331 116.4195695219642 H 0.0 **** 0.06
23614 H 65.16991059254599 76.9559132071299 116.11921170429798 H 0.0 **** 0.06
23615 H 64.85964051418313 75.85905238318125 114.75086213895759 H 0.0 **** 0.06
23616 C 112.94483692101454 114.99653642192546 77.95546495052582 C 0.0 **** -0.24
23617 H 113.57704725289656 115.00422337878794 77.06831473832736 H 0.0 **** 0.06
23618 H 113.51649613187854 114.62629352081132 78.80610557535982 H 0.0 **** 0.06
23619 H 112.08590072762684 114.34782673455608 77.78440966131873 H 0.0 **** 0.06
23620 H 112.59886182329478 116.00966263120773 78.16235654861899 H 0.0 **** 0.06
23621 C 79.19112958758794 43.39323120320495 32.04495839246053 C 0.0 **** -0.24
23622 H 79.68651153257153 44.22844101465516 31.548072115295867 H 0.0 **** 0.06
23623 H 79.78645013068524 42.48942151914943 31.913713969025366 H 0.0 **** 0.06
23624 H 78.20372293863196 43.24553759867831 31.609067120531137 H 0.0 **** 0.06
23625 H 79.09165512555134 43.61209939186338 33.10810330969531 H 0.0 **** 0.06
23626 C 60.36680509106003 81.06380693175834 74.08624233772798 C 0.0 **** -0.24
23627 H 59.93437903948325 80.24262953002591 73.51349542340057 H 0.0 **** 0.06
23628 H 59.75388182060112 81.95604271745088 73.96153511994339 H 0.0 **** 0.06
23629 H 61.376900530914384 81.26379707030287 73.72818404770669 H 0.0 **** 0.06
23630 H 60.403064104934856 80.79093341654209 75.14094272250094 H 0.0 **** 0.06
23631 C 105.37255159318795 91.03394354292288 53.48747120761716 C 0.0 **** -0.24
23632 H 104.72748469792748 90.54468107464331 54.217381829635826 H 0.0 **** 0.06
23633 H 105.03419333744645 90.78649591504842 52.48039075485869 H 0.0 **** 0.06
23634 H 106.39824887619372 90.691852554841 53.62155456847805 H 0.0 **** 0.06
23635 H 105.32742879448125 92.11358252223758 53.630142757971896 H 0.0 **** 0.06
23636 C 44.71401030294089 102.29883082421867 8.840258908975784 C 0.0 **** -0.24
23637 H 43.913326969856 103.0348486163833 8.769841867294303 H 0.0 **** 0.06
23638 H 44.77640825922472 101.92836262621938 9.863504423303652 H 0.0 **** 0.06
23639 H 45.660050010890245 102.76497615057443 8.563992725045068 H 0.0 **** 0.06
23640 H 44.50598509494867 101.46934987234127 8.164709201085998 H 0.0 **** 0.06
23641 C 79.12216170754215 1.1243295947157463 85.11088554128426 C 0.0 **** -0.24
23642 H 78.19406578452333 0.603644110287874 84.87498057182302 H 0.0 **** 0.06
23643 H 78.90264409780582 2.1589334286242092 85.37247573961719 H 0.0 **** 0.06
23644 H 79.78204344391321 1.1006775727388884 84.24369684196392 H 0.0 **** 0.06
23645 H 79.61113529004012 0.632165545781632 85.95146328392855 H 0.0 **** 0.06
23646 C 50.51291532584409 83.77944006037222 18.891938197423656 C 0.0 **** -0.24
23647 H 50.12866275555379 83.44372898096867 17.92885118677117 H 0.0 **** 0.06
23648 H 49.71339943975417 84.26626179336515 19.451539476809046 H 0.0 **** 0.06
23649 H 51.327078322706996 84.48523258638375 18.732301110628327 H 0.0 **** 0.06
23650 H 50.880483562517924 82.92119966498538 19.455309869614837 H 0.0 **** 0.06
23651 C 79.30946551613076 9.77887198906997 59.75997578403229 C 0.0 **** -0.24
23652 H 79.79977188553394 10.461712057469779 59.06643944855182 H 0.0 **** 0.06
23653 H 79.83818246539005 9.790524084494894 60.71411744033861 H 0.0 **** 0.06
23654 H 79.32450660021374 8.769949290686153 59.348496396382245 H 0.0 **** 0.06
23655 H 78.27792126682377 10.094301509497278 59.91165689629935 H 0.0 **** 0.06
23656 C 108.94622568148162 55.47194057294564 97.42491878279839 C 0.0 **** -0.24
23657 H 108.66409032135971 54.45758402260353 97.14198411889444 H 0.0 **** 0.06
23658 H 109.1892563120546 56.04345878460933 96.52914782124202 H 0.0 **** 0.06
23659 H 109.81402021895124 55.43713928685088 98.08267330477236 H 0.0 **** 0.06
23660 H 108.11437995623606 55.94697201129742 97.94538147567627 H 0.0 **** 0.06
23661 C 86.42700044768026 82.88302228250996 6.744133874145817 C 0.0 **** -0.24
23662 H 85.90875951940149 82.68105397946454 5.807624068931233 H 0.0 **** 0.06
23663 H 87.41434007928109 82.42069623969263 6.719747109291291 H 0.0 **** 0.06
23664 H 85.85250952718437 82.47106574881104 7.5736340545010705 H 0.0 **** 0.06
23665 H 86.5328141500174 83.96061185042032 6.875704564975393 H 0.0 **** 0.06
23666 C 99.13235860478369 106.97103603136676 91.43035815219704 C 0.0 **** -0.24
23667 H 99.207719649144 105.94559393953779 91.0709966406373 H 0.0 **** 0.06
23668 H 98.5275470271049 107.55644929275638 90.73697448678811 H 0.0 **** 0.06
23669 H 100.12915452645291 107.4065687331425 91.49935614107395 H 0.0 **** 0.06
23670 H 98.66458661542106 106.9774006160572 92.41525737173183 H 0.0 **** 0.06
23671 C 15.113444619674766 22.846791893263592 22.609195367157128 C 0.0 **** -0.24
23672 H 15.747676381540288 23.47680653647928 21.98435356459309 H 0.0 **** 0.06
23673 H 15.421091928999004 22.941425744023356 23.650811977918742 H 0.0 **** 0.06
23674 H 15.2112232161534 21.80778819299345 22.293313631222574 H 0.0 **** 0.06
23675 H 14.075130075732233 23.161775762845323 22.50635264044277 H 0.0 **** 0.06
23676 C 113.67554339342706 71.19803603334304 46.34820953838428 C 0.0 **** -0.24
23677 H 113.02825123943569 70.53723079306695 46.92422762202185 H 0.0 **** 0.06
23678 H 113.74143857307718 70.83695072721287 45.32166055216327 H 0.0 **** 0.06
23679 H 114.67050668216663 71.21115695840632 46.793509979661664 H 0.0 **** 0.06
23680 H 113.26102483963885 72.20655595873114 46.35326407177285 H 0.0 **** 0.06
23681 C 54.24403379237714 106.91791081432933 35.5096954790682 C 0.0 **** -0.24
23682 H 54.51844135321363 106.22103887583665 36.30234270610899 H 0.0 **** 0.06
23683 H 55.12636071857676 107.15723727130836 34.91615221214809 H 0.0 **** 0.06
23684 H 53.8435173040275 107.83012512835728 35.95183816341731 H 0.0 **** 0.06
23685 H 53.48792419384171 106.46102558094623 34.87070192185365 H 0.0 **** 0.06
23686 C 90.05503352181552 99.37813686122621 49.92916888880649 C 0.0 **** -0.24
23687 H 90.0970106282632 98.2929441262076 50.02404374020219 H 0.0 **** 0.06
23688 H 90.55343601306026 99.83608340944627 50.78337464064671 H 0.0 **** 0.06
23689 H 89.01360835553174 99.69922525236223 49.89971617316962 H 0.0 **** 0.06
23690 H 90.55499222044051 99.6814986177867 49.00957849842041 H 0.0 **** 0.06
23691 C 44.42215167904595 25.96297242895858 9.495485755005575 C 0.0 **** -0.24
23692 H 43.64900900348198 26.406239317863232 10.123529918378665 H 0.0 **** 0.06
23693 H 44.94520673774227 26.750179325332354 8.953355490711488 H 0.0 **** 0.06
23694 H 43.96237330198187 25.275287269973283 8.785592421972865 H 0.0 **** 0.06
23695 H 45.13034523918188 25.419141827369096 10.120522329191886 H 0.0 **** 0.06
23696 C 28.44634892772433 56.379468927016944 25.254709378414148 C 0.0 **** -0.24
23697 H 28.404977760342405 57.30796952937919 24.683862008095986 H 0.0 **** 0.06
23698 H 27.61159175082433 56.34685907439376 25.954377572845928 H 0.0 **** 0.06
23699 H 29.385605392186505 56.33481229245723 25.805965804132 H 0.0 **** 0.06
23700 H 28.384539961276133 55.53083334557414 24.573404105197596 H 0.0 **** 0.06
23701 C 60.4837559642365 24.903104988228506 6.507276077304315 C 0.0 **** -0.24
23702 H 60.70879508678636 24.511016609509653 7.499001671258153 H 0.0 **** 0.06
23703 H 59.70095223813653 25.65844748856054 6.584416672684451 H 0.0 **** 0.06
23704 H 60.14273867165257 24.090856853129424 5.864744530743623 H 0.0 **** 0.06
23705 H 61.3812196047978 25.35206945572162 6.081452752822871 H 0.0 **** 0.06
23706 C 30.149006757213783 114.621967505778 86.93207730545257 C 0.0 **** -0.24
23707 H 30.504632256020237 114.75893849427925 85.91044671060888 H 0.0 **** 0.06
23708 H 29.19302347636261 114.09767678113958 86.91549936650671 H 0.0 **** 0.06
23709 H 30.02262740704409 115.59461619626003 87.4057251196725 H 0.0 **** 0.06
23710 H 30.876194407417856 114.03492700257807 87.49366004974365 H 0.0 **** 0.06
23711 C 8.930328152600964 25.076256306620877 79.30175276703116 C 0.0 **** -0.24
23712 H 7.937866084125915 24.72241733083797 79.02045637206257 H 0.0 **** 0.06
23713 H 8.982106307477864 26.156484516880823 79.16824409899962 H 0.0 **** 0.06
23714 H 9.678344989198479 24.596019430908882 78.66963409151631 H 0.0 **** 0.06
23715 H 9.123067333563085 24.827861973105882 80.34493893108558 H 0.0 **** 0.06
23716 C 30.364282036653947 21.55610519337457 32.839669909282634 C 0.0 **** -0.24
23717 H 30.268789786561285 21.664471535029485 33.9199474297763 H 0.0 **** 0.06
23718 H 29.772408874149903 20.7031575336319 32.50656323126685 H 0.0 **** 0.06
23719 H 31.41135946017954 21.394850689200705 32.581950170577045 H 0.0 **** 0.06
23720 H 30.005234156224844 22.461403741780902 32.350738734392394 H 0.0 **** 0.06
23721 C 48.21464554072281 42.113731384046844 79.49919045131168 C 0.0 **** -0.24
23722 H 48.64700525830011 42.96939507882553 80.01776472769737 H 0.0 **** 0.06
23723 H 47.12672497096918 42.162013216957234 79.56419342298625 H 0.0 **** 0.06
23724 H 48.566308074187305 41.19242933399528 79.96258176677188 H 0.0 **** 0.06
23725 H 48.51691647766586 42.13285996920803 78.45176169938941 H 0.0 **** 0.06
23726 C 30.24568014672576 80.10918646463404 85.657485196945 C 0.0 **** -0.24
23727 H 30.509809285518884 79.19837667692133 85.12017719018604 H 0.0 **** 0.06
23728 H 29.17711300048859 80.29523692757425 85.55433002621788 H 0.0 **** 0.06
23729 H 30.802576210840357 80.94904265405097 85.24249856962786 H 0.0 **** 0.06
23730 H 30.49495496263353 79.99313027836644 86.71189714460871 H 0.0 **** 0.06
23731 C 110.23635719271722 64.73165034573171 108.51509772276228 C 0.0 **** -0.24
23732 H 110.51103652112208 65.62529308812228 107.95438879244162 H 0.0 **** 0.06
23733 H 109.54546428076704 65.00194513491329 109.31434696058312 H 0.0 **** 0.06
23734 H 111.13199636571979 64.28231239111864 108.94477373824532 H 0.0 **** 0.06
23735 H 109.75611042844372 64.01659574229501 107.84653689813342 H 0.0 **** 0.06
23736 C 91.74093216754545 62.17386333589303 27.179750713358636 C 0.0 **** -0.24
23737 H 92.44155034713793 63.004418000402666 27.26848465125343 H 0.0 **** 0.06
23738 H 91.89138293933036 61.482938837618406 28.010198522148215 H 0.0 **** 0.06
23739 H 91.91232952346098 61.65327481863659 26.238272602452632 H 0.0 **** 0.06
23740 H 90.72053893558007 62.55573704888741 27.204013037439893 H 0.0 **** 0.06
23741 C 39.99131200254584 109.01367469426356 25.96809239550913 C 0.0 **** -0.24
23742 H 40.534549886056254 109.9231100128273 25.71157228817009 H 0.0 **** 0.06
23743 H 40.63977289925441 108.14914127732288 25.820799849189513 H 0.0 **** 0.06
23744 H 39.11350916382469 108.92237604074668 25.328318758844745 H 0.0 **** 0.06
23745 H 39.678096929283015 109.05956671056484 27.01114791376554 H 0.0 **** 0.06
23746 C 16.56748091832725 24.78706485048872 65.94903995119668 C 0.0 **** -0.24
23747 H 17.059047678279654 23.87513345549256 65.61051401991114 H 0.0 **** 0.06
23748 H 17.27233164397782 25.38613602544686 66.52730448194885 H 0.0 **** 0.06
23749 H 15.711898488080095 24.529451545128865 66.57282086083333 H 0.0 **** 0.06
23750 H 16.22862520613765 25.35861070452694 65.08455469716495 H 0.0 **** 0.06
23751 C 75.39223081586951 62.059557783960344 58.12941596422385 C 0.0 **** -0.24
23752 H 76.4274066787479 62.120617858394695 58.466585390532714 H 0.0 **** 0.06
23753 H 75.14937485025621 62.9428168457446 57.538868789611115 H 0.0 **** 0.06
23754 H 74.73178066800682 62.00681867804295 58.99509995658852 H 0.0 **** 0.06
23755 H 75.2618181772907 61.165693293731835 57.5183975858057 H 0.0 **** 0.06
23756 C 71.82871473372148 52.00866647041434 117.90955933321607 C 0.0 **** -0.24
23757 H 72.358645901476 52.95431311969311 118.02812999465161 H 0.0 **** 0.06
23758 H 71.43087931866131 51.94031810311034 116.89674242482768 H 0.0 **** 0.06
23759 H 71.00917025861867 51.95975778037537 118.62649333220553 H 0.0 **** 0.06
23760 H 72.51712964651585 51.18200652349296 118.08714551273349 H 0.0 **** 0.06
23761 C 58.35546484171067 63.87882588308625 100.2898156818056 C 0.0 **** -0.24
23762 H 59.096260921493496 64.5851104875897 99.91668873162953 H 0.0 **** 0.06
23763 H 58.655315958562994 62.864853763119044 100.0248677145158 H 0.0 **** 0.06
23764 H 57.38521096311749 64.09969778374014 99.84375666678477 H 0.0 **** 0.06
23765 H 58.28507152366865 63.9656414978962 101.37394961429248 H 0.0 **** 0.06
23766 C 94.93800388389224 106.02557609214207 23.00085254096949 C 0.0 **** -0.24
23767 H 94.0655607063537 105.39103954824549 23.15458544612582 H 0.0 **** 0.06
23768 H 94.62184810733541 107.06779870204045 22.935428815973957 H 0.0 **** 0.06
23769 H 95.4381487820769 105.73837342991928 22.075476222612266 H 0.0 **** 0.06
23770 H 95.62563608262019 105.90679239295673 23.83857982255794 H 0.0 **** 0.06
23771 C 57.231293273777965 31.372906802689897 34.09868580981245 C 0.0 **** -0.24
23772 H 58.14997586277184 31.554313289733415 34.65749223223028 H 0.0 **** 0.06
23773 H 56.685659483097254 30.546794842921514 34.55432859443377 H 0.0 **** 0.06
23774 H 57.47909243880298 31.119323164387225 33.06785629234852 H 0.0 **** 0.06
23775 H 56.61406267546556 32.270472222556805 34.11444021194529 H 0.0 **** 0.06
23776 C 75.24122749302194 101.24071499529151 84.03517668495698 C 0.0 **** -0.24
23777 H 75.64717038510545 100.55023447915903 84.77447202168327 H 0.0 **** 0.06
23778 H 75.92451539668073 102.0808165610257 83.90931727096864 H 0.0 **** 0.06
23779 H 74.27211461568311 101.60690634763185 84.37438120633038 H 0.0 **** 0.06
23780 H 75.12068058789126 100.72355800092643 83.08262656647742 H 0.0 **** 0.06
23781 C 1.4993229820641432 20.937523320356377 42.82805085298364 C 0.0 **** -0.24
23782 H 0.9494745746435456 20.653646015376665 43.726152771486454 H 0.0 **** 0.06
23783 H 2.1387956183005628 21.79205166077739 43.04893005557301 H 0.0 **** 0.06
23784 H 0.7938382847825665 21.20490103234161 42.04096502192297 H 0.0 **** 0.06
23785 H 2.112573185033952 20.099402822821048 42.49819975964033 H 0.0 **** 0.06
23786 C 42.11159049385208 15.942992253547303 62.64215827282941 C 0.0 **** -0.24
23787 H 41.37844484674687 16.300937293915297 61.91960837546147 H 0.0 **** 0.06
23788 H 42.892239326565004 15.387604799119373 62.12101450755839 H 0.0 **** 0.06
23789 H 41.62031629091567 15.290800540215315 63.363373305115694 H 0.0 **** 0.06
23790 H 42.55361451612197 16.792345745199682 63.16201586571025 H 0.0 **** 0.06
23791 C 75.79435059825781 6.02065608340294 37.066228124272044 C 0.0 **** -0.24
23792 H 76.05722551031823 5.068913988962635 36.60314345668998 H 0.0 **** 0.06
23793 H 76.0397940396123 5.9880151695604695 38.12753045243794 H 0.0 **** 0.06
23794 H 74.72552059105124 6.199466487249879 36.944676137554126 H 0.0 **** 0.06
23795 H 76.35306576761428 6.823455642620047 36.58709590233627 H 0.0 **** 0.06
23796 C 83.85184778797048 4.224437671911824 107.36096227415317 C 0.0 **** -0.24
23797 H 82.80767864498605 4.485717713909972 107.53709346432669 H 0.0 **** 0.06
23798 H 84.36554960253105 5.071736114647413 106.90548512668158 H 0.0 **** 0.06
23799 H 83.90299144606186 3.3651824495911775 106.69300396716125 H 0.0 **** 0.06
23800 H 84.32796411560804 3.9768373171344624 108.30912988190343 H 0.0 **** 0.06
23801 C 113.09337564952098 26.119725766297506 116.39234329851914 C 0.0 **** -0.24
23802 H 113.64789148846879 25.523359642927687 115.66897817588804 H 0.0 **** 0.06
23803 H 113.50716927764857 27.128138718573723 116.42471277044126 H 0.0 **** 0.06
23804 H 113.17269225925962 25.6622728385681 117.37869023697482 H 0.0 **** 0.06
23805 H 112.04508189729535 26.166416625065494 116.09794268269454 H 0.0 **** 0.06
23806 C 29.740911730734155 112.83842078939233 103.88461033046212 C 0.0 **** -0.24
23807 H 30.435591737032667 113.6786649440927 103.88482746195572 H 0.0 **** 0.06
23808 H 30.090528806585638 112.07872488219579 103.18405789301858 H 0.0 **** 0.06
23809 H 28.752849226193206 113.18421293317215 103.58183183846387 H 0.0 **** 0.06
23810 H 29.686102806633613 112.41174482346258 104.88603439632433 H 0.0 **** 0.06
23811 C 55.6187313092608 30.528050878712577 82.82518944025091 C 0.0 **** -0.24
23812 H 56.02272047898092 31.51507868291418 83.04815665234719 H 0.0 **** 0.06
23813 H 56.43205917886174 29.803332400730596 82.78676446300469 H 0.0 **** 0.06
23814 H 55.10748421254478 30.55305672436407 81.86293860359433 H 0.0 **** 0.06
23815 H 54.91220095980632 30.24043551764146 83.60373348836657 H 0.0 **** 0.06
23816 C 88.10805128279881 83.15364983290232 74.35044813461067 C 0.0 **** -0.24
23817 H 88.10637945772862 82.15833793196836 73.90669712049882 H 0.0 **** 0.06
23818 H 87.23916214149398 83.26404589651833 74.99899722227181 H 0.0 **** 0.06
23819 H 88.0690281310518 83.90287295275891 73.55936184786188 H 0.0 **** 0.06
23820 H 89.01834366435241 83.28989288768628 74.9346879863835 H 0.0 **** 0.06
23821 C 30.238977982411996 47.20143420303782 41.39387059138369 C 0.0 **** -0.24
23822 H 29.616402862026206 47.01799115778471 42.26959968236014 H 0.0 **** 0.06
23823 H 31.160498323172774 47.695124334632965 41.70082796485565 H 0.0 **** 0.06
23824 H 29.699747424830598 47.84055579308932 40.69334887304211 H 0.0 **** 0.06
23825 H 30.475448647623487 46.25362607013591 40.911587620601324 H 0.0 **** 0.06
23826 C 77.25038098273879 118.02931026203538 65.96767043389815 C 0.0 **** -0.24
23827 H 78.01733392990829 117.65541892509782 66.64691125201642 H 0.0 **** 0.06
23828 H 77.18315739925461 119.11399300892316 66.05793095721623 H 0.0 **** 0.06
23829 H 76.28990169637342 117.58322724126319 66.22300348397903 H 0.0 **** 0.06
23830 H 77.51397128390124 117.76598168699223 64.94300618530679 H 0.0 **** 0.06
23831 C 37.519989987736835 88.78384492989107 101.17160080866407 C 0.0 **** -0.24
23832 H 38.09225980412606 88.35290120911296 100.34939195309838 H 0.0 **** 0.06
23833 H 36.810864780946574 88.04502545125922 101.54585583930614 H 0.0 **** 0.06
23834 H 36.97944833441292 89.66059582381976 100.81687122330078 H 0.0 **** 0.06
23835 H 38.19989913560909 89.0747320907677 101.97250267103476 H 0.0 **** 0.06
23836 C 35.00896704849549 93.92332713269576 108.6071201885448 C 0.0 **** -0.24
23837 H 35.46929883820886 92.93554552258286 108.56921558357826 H 0.0 **** 0.06
23838 H 35.77591812615319 94.68528423434171 108.46349196639528 H 0.0 **** 0.06
23839 H 34.53253443372574 94.0647199886894 109.57647023174081 H 0.0 **** 0.06
23840 H 34.2620647677885 94.00535933146713 107.8184921530426 H 0.0 **** 0.06
23841 C 94.21912544742099 50.57608213173302 26.266265659025805 C 0.0 **** -0.24
23842 H 94.20672643044236 49.59257305359398 26.73495496860079 H 0.0 **** 0.06
23843 H 94.12454032440587 50.46598249786558 25.185733232594032 H 0.0 **** 0.06
23844 H 95.15862183689308 51.07721071311147 26.49903859636663 H 0.0 **** 0.06
23845 H 93.38729869294968 51.1699103763047 26.64449152754179 H 0.0 **** 0.06
23846 C 32.87185745344096 37.81566027076963 12.438506736247604 C 0.0 **** -0.24
23847 H 33.32084020285587 37.1101421858705 13.138019655680608 H 0.0 **** 0.06
23848 H 31.830336776743273 37.544790904784435 12.268686331829471 H 0.0 **** 0.06
23849 H 33.41507021849634 37.785252462339145 11.494353259875908 H 0.0 **** 0.06
23850 H 32.92419903661604 38.82167528988222 12.855039713461125 H 0.0 **** 0.06
23851 C 5.385724719744303 68.1644074691146 12.544061147908394 C 0.0 **** -0.24
23852 H 5.906256915409756 68.75174107732434 11.787354428240803 H 0.0 **** 0.06
23853 H 4.451838961332214 68.65947414282724 12.80856236694396 H 0.0 **** 0.06
23854 H 6.014278327351747 68.075438435373 13.430218274159756 H 0.0 **** 0.06
23855 H 5.172109778971276 67.17093301503411 12.14889058319477 H 0.0 **** 0.06
23856 C 36.37932164267329 88.73932101485386 82.23155009679164 C 0.0 **** -0.24
23857 H 36.460862167534174 88.56604516002128 83.30467506621699 H 0.0 **** 0.06
23858 H 37.37580122791701 88.85483529107731 81.80653552049165 H 0.0 **** 0.06
23859 H 35.799570148671194 89.64484563822512 82.05321917303468 H 0.0 **** 0.06
23860 H 35.880056052905104 87.88956894645219 81.76460798353946 H 0.0 **** 0.06
23861 C 43.51419459103346 87.55752781380389 59.68358549705951 C 0.0 **** -0.24
23862 H 42.64596468706293 87.52318774506247 60.342317772908046 H 0.0 **** 0.06
23863 H 43.5961619474367 86.61483665228664 59.1417937069902 H 0.0 **** 0.06
23864 H 44.41397917562701 87.7151444161361 60.2781006487354 H 0.0 **** 0.06
23865 H 43.3991001899332 88.37684475043145 58.974005620510866 H 0.0 **** 0.06
23866 C 82.76404718916982 1.7534587834596067 0.7082788722828894 C 0.0 **** -0.24
23867 H 83.36377664740274 2.2486359595223746 -0.05460292587989102 H 0.0 **** 0.06
23868 H 82.96140582902981 2.2104601170444482 1.6786226215179596 H 0.0 **** 0.06
23869 H 83.02440078862926 0.6952322795935117 0.7451067229234525 H 0.0 **** 0.06
23870 H 81.70755073898513 1.85861728113737 0.464550693605446 H 0.0 **** 0.06
23871 C 106.20637639241562 66.89838397819278 28.094850376803066 C 0.0 **** -0.24
23872 H 106.86609655453083 66.62564146121747 27.272075008237863 H 0.0 **** 0.06
23873 H 106.48433049081268 66.33578732421273 28.98601483091136 H 0.0 **** 0.06
23874 H 105.17630700409808 66.66757463972971 27.82594967552194 H 0.0 **** 0.06
23875 H 106.29919075053007 67.96618679770975 28.295065884924867 H 0.0 **** 0.06
23876 C 115.16144699902321 92.68986163182319 1.4443759902851667 C 0.0 **** -0.24
23877 H 115.88369598868547 91.92087326768822 1.7178203938492942 H 0.0 **** 0.06
23878 H 114.19908438768522 92.46502906336613 1.9061759447059927 H 0.0 **** 0.06
23879 H 115.04896379037677 92.71320732688739 0.3612684374019608 H 0.0 **** 0.06
23880 H 115.51456510138428 93.66101763615617 1.7949346073183818 H 0.0 **** 0.06
23881 C 117.88103255937199 82.4051818589169 40.791339939190436 C 0.0 **** -0.24
23882 H 118.0777789621524 82.36923910685016 39.72035932486369 H 0.0 **** 0.06
23883 H 117.32936110845421 83.31426633875316 41.028842642704035 H 0.0 **** 0.06
23884 H 118.82640417903224 82.40153504954702 41.334039469481695 H 0.0 **** 0.06
23885 H 117.29278485369491 81.53549445381873 41.081760226632696 H 0.0 **** 0.06
23886 C 49.949126203525836 60.600573608422316 22.620310032481115 C 0.0 **** -0.24
23887 H 49.94084974231906 59.51884816648204 22.75431055756738 H 0.0 **** 0.06
23888 H 49.09764342919874 60.89752287203803 22.00646241228489 H 0.0 **** 0.06
23889 H 50.87429415952485 60.89865727384109 22.127435882102475 H 0.0 **** 0.06
23890 H 49.88232724271904 61.08740299343166 23.593251765920172 H 0.0 **** 0.06
23891 C 95.66950668062162 70.72084866090012 80.01810340697526 C 0.0 **** -0.24
23892 H 95.58126538526102 71.72063629893344 80.44243073537609 H 0.0 **** 0.06
23893 H 94.68993705638232 70.38386525704652 79.67677776372656 H 0.0 **** 0.06
23894 H 96.04479913969314 70.03559570944819 80.77856482475542 H 0.0 **** 0.06
23895 H 96.36041031032849 70.74365178638698 79.17515691986753 H 0.0 **** 0.06
23896 C 75.00588683483113 43.88341249001 83.39758700485118 C 0.0 **** -0.24
23897 H 75.61902729105688 44.48941432233715 82.73140154734082 H 0.0 **** 0.06
23898 H 75.0510167733901 44.294611904564896 84.40649034627623 H 0.0 **** 0.06
23899 H 75.38007863871309 42.85986483818652 83.40495215173547 H 0.0 **** 0.06
23900 H 73.97411081607652 43.890367414160536 83.04710532626382 H 0.0 **** 0.06
23901 C 21.74731794749482 117.96957152246638 70.16262544712748 C 0.0 **** -0.24
23902 H 20.793010638958265 118.12408671891183 70.66725724381047 H 0.0 **** 0.06
23903 H 22.527030784575828 118.52482046711374 70.68332212273737 H 0.0 **** 0.06
23904 H 21.67443212436561 118.32213373259108 69.1338479649956 H 0.0 **** 0.06
23905 H 21.992543525387447 116.90818806961408 70.1662404288374 H 0.0 **** 0.06
23906 C 108.15026031812812 20.819168009036787 111.94129037469705 C 0.0 **** -0.24
23907 H 107.99496485931948 19.93047457507828 112.55309743242033 H 0.0 **** 0.06
23908 H 107.3600540357642 21.541414013833958 112.14343200878369 H 0.0 **** 0.06
23909 H 108.12878422745973 20.54154738729605 110.88729978823545 H 0.0 **** 0.06
23910 H 109.11813340588193 21.260379077171734 112.18152382441775 H 0.0 **** 0.06
23911 C 90.66143633314391 21.368037122928854 91.67508913444891 C 0.0 **** -0.24
23912 H 90.88292111236368 22.23370080230859 92.30096258467466 H 0.0 **** 0.06
23913 H 90.23309560096752 21.70405955553798 90.73123127358616 H 0.0 **** 0.06
23914 H 89.95106810926009 20.72168813575763 92.18839646153333 H 0.0 **** 0.06
23915 H 91.58138972157931 20.81593275422216 91.48152744533542 H 0.0 **** 0.06
23916 C 30.971713577089957 62.30051889861721 80.52824535701535 C 0.0 **** -0.24
23917 H 30.820811114887505 61.23384875509461 80.3604929922368 H 0.0 **** 0.06
23918 H 31.577547966438004 62.445771460180225 81.42263953948247 H 0.0 **** 0.06
23919 H 30.005112851219508 62.787338634970865 80.6609261688169 H 0.0 **** 0.06
23920 H 31.482588391294286 62.73460587276037 79.6685930951725 H 0.0 **** 0.06
23921 C 102.67850721631225 92.8663096732472 45.66495735768936 C 0.0 **** -0.24
23922 H 103.38143743802212 93.69257630549771 45.55157650575026 H 0.0 **** 0.06
23923 H 103.04927372988942 92.17647607214994 46.42372439758162 H 0.0 **** 0.06
23924 H 102.57871863513631 92.34190607839986 44.714960705155136 H 0.0 **** 0.06
23925 H 101.70723197810338 93.25472233439135 45.970502045028894 H 0.0 **** 0.06
23926 C 98.81148359305462 46.06822603894262 9.710235851495739 C 0.0 **** -0.24
23927 H 99.6207325986143 45.577944337704665 10.252043484712345 H 0.0 **** 0.06
23928 H 98.82412860544974 47.136818195250015 9.926932711889577 H 0.0 **** 0.06
23929 H 97.8571690637479 45.64485589984326 10.024181863061969 H 0.0 **** 0.06
23930 H 98.94462230075959 45.912518734798894 8.639998099013823 H 0.0 **** 0.06
23931 C 103.255526852477 93.12676681117253 8.697562610097222 C 0.0 **** -0.24
23932 H 103.43973384961802 93.90357478386528 7.955114798039677 H 0.0 **** 0.06
23933 H 102.30293130369955 93.31745526629584 9.19328863039652 H 0.0 **** 0.06
23934 H 104.05724691257831 93.13410623628369 9.436186779229672 H 0.0 **** 0.06
23935 H 103.22300435817183 92.15481224554657 8.205870486386367 H 0.0 **** 0.06
23936 C 41.242387417721424 21.679969262479233 34.513032434814484 C 0.0 **** -0.24
23937 H 40.94355215212047 21.595064075665164 35.557365765871126 H 0.0 **** 0.06
23938 H 42.07307855692468 22.380240180425574 34.42894077894846 H 0.0 **** 0.06
23939 H 40.40008062334301 22.042398860953654 33.92263282781908 H 0.0 **** 0.06
23940 H 41.551841494685156 20.702044503442096 34.14219554625679 H 0.0 **** 0.06
23941 C 42.19361981980621 28.74367992852097 37.6765399071991 C 0.0 **** -0.24
23942 H 43.21367523151523 28.604997410489226 37.31864513248067 H 0.0 **** 0.06
23943 H 42.019845868623584 29.8004402244381 37.87900434871551 H 0.0 **** 0.06
23944 H 42.05000645836802 28.169081588396224 38.59170903476698 H 0.0 **** 0.06
23945 H 41.49180156305195 28.39817155066114 36.91639928840226 H 0.0 **** 0.06
23946 C 38.07456926822846 105.50803436822954 92.6261892857625 C 0.0 **** -0.24
23947 H 37.61657802979212 106.05972384536557 93.44812505505556 H 0.0 **** 0.06
23948 H 38.02184394081064 104.43900249669088 92.83407509347418 H 0.0 **** 0.06
23949 H 39.11705379805494 105.80814893630802 92.52470153226363 H 0.0 **** 0.06
23950 H 37.54157271869323 105.72535188998702 91.70166117758743 H 0.0 **** 0.06
23951 C 80.9575645205754 77.57939737998166 112.69991725083077 C 0.0 **** -0.24
23952 H 80.52246605083815 78.33861214445744 113.34958779343935 H 0.0 **** 0.06
23953 H 81.25306520987476 76.71697622550386 113.29766274937111 H 0.0 **** 0.06
23954 H 81.83360460155808 77.9904914137808 112.196717358147 H 0.0 **** 0.06
23955 H 80.22231667518736 77.27301835885024 111.95624660100367 H 0.0 **** 0.06
23956 C 102.38934372565657 23.76894508797949 3.654862295501488 C 0.0 **** -0.24
23957 H 103.02186406939714 22.90019571576221 3.8410992241498434 H 0.0 **** 0.06
23958 H 101.44682102293498 23.65346432731775 4.190968419407909 H 0.0 **** 0.06
23959 H 102.19276160659814 23.852393917485927 2.5866323334627737 H 0.0 **** 0.06
23960 H 102.89808938312575 24.667889574097615 4.002147772619821 H 0.0 **** 0.06
23961 C 116.23953494220848 21.500043214199138 87.64608914890181 C 0.0 **** -0.24
23962 H 116.60411740906153 20.531095785960304 87.30674418134635 H 0.0 **** 0.06
23963 H 115.36877131215437 21.35648690163316 88.28543711809044 H 0.0 **** 0.06
23964 H 115.96125998160826 22.105380592214203 86.78277846488214 H 0.0 **** 0.06
23965 H 117.02371530335472 22.007274225316507 88.20801122937297 H 0.0 **** 0.06
23966 C 105.11876643864053 102.65158100170558 80.67932182493715 C 0.0 **** -0.24
23967 H 104.03920695205545 102.65368014742734 80.82801091686937 H 0.0 **** 0.06
23968 H 105.3675056076168 103.27228341248417 79.81797174004174 H 0.0 **** 0.06
23969 H 105.46057879596111 101.63147390613113 80.50351110156225 H 0.0 **** 0.06
23970 H 105.60806146036401 103.05026860098582 81.56788084783844 H 0.0 **** 0.06
23971 C 37.172028527105624 113.27463710042247 43.12939455054271 C 0.0 **** -0.24
23972 H 37.062920118149066 112.19024426461318 43.16302714211457 H 0.0 **** 0.06
23973 H 36.24682901775512 113.74298928392845 43.46575104541313 H 0.0 **** 0.06
23974 H 37.38698479502381 113.58651567948148 42.107773745048064 H 0.0 **** 0.06
23975 H 37.99166440276068 113.57670635476407 43.78176085643781 H 0.0 **** 0.06
23976 C 117.71424693677915 62.558128130425125 82.72850310405352 C 0.0 **** -0.24
23977 H 117.5738889197864 62.696886325307155 81.65671332273195 H 0.0 **** 0.06
23978 H 118.54309765748273 63.17876213233526 83.07006207556992 H 0.0 **** 0.06
23979 H 117.93619810349759 61.51058394599185 82.93391116506785 H 0.0 **** 0.06
23980 H 116.80324543945902 62.84559036456039 83.25442740151226 H 0.0 **** 0.06
23981 C 51.778484421561465 81.54977579177748 61.270409003627606 C 0.0 **** -0.24
23982 H 51.681033859500246 81.12597820471447 62.270478315706896 H 0.0 **** 0.06
23983 H 52.771516384747066 81.33014974489637 60.877320548454634 H 0.0 **** 0.06
23984 H 51.635759700565465 82.62916124896654 61.31827586590322 H 0.0 **** 0.06
23985 H 51.02343699633568 81.11225789025983 60.61689536965747 H 0.0 **** 0.06
23986 C 45.43300338105941 86.81172349415093 21.29120297294589 C 0.0 **** -0.24
23987 H 45.81342715351903 85.79012860976934 21.285101079020194 H 0.0 **** 0.06
23988 H 44.92872486989967 87.00663028238094 22.237781077284787 H 0.0 **** 0.06
23989 H 44.72750350885033 86.94168463933491 20.470413954563174 H 0.0 **** 0.06
23990 H 46.26235799196873 87.5084504451186 21.17151578091525 H 0.0 **** 0.06
23991 C 30.718117495595862 24.735577006108628 69.38225242701304 C 0.0 **** -0.24
23992 H 30.646388045438 25.791637671523738 69.11977310105073 H 0.0 **** 0.06
23993 H 31.655530268306876 24.55518607168822 69.90903797504805 H 0.0 **** 0.06
23994 H 30.68989057274902 24.133287667034985 68.47413438985484 H 0.0 **** 0.06
23995 H 29.880802334450465 24.464016968591487 70.0247732524376 H 0.0 **** 0.06
23996 C 55.48430064797702 38.64456575552751 7.897531506023142 C 0.0 **** -0.24
23997 H 56.01931428702596 38.876261782351904 6.975794553575028 H 0.0 **** 0.06
23998 H 55.063529130210895 37.641967907878865 7.830037957708811 H 0.0 **** 0.06
23999 H 54.681588463536684 39.367579836919305 8.042942524757862 H 0.0 **** 0.06
24000 H 56.175041440515116 38.69400728818101 8.738815177623508 H 0.0 **** 0.06
24001 C 57.783686433820975 2.6329244906756486 88.75217227512081 C 0.0 **** -0.24
24002 H 57.10137889835735 2.705889633757522 89.59896509146262 H 0.0 **** 0.06
24003 H 58.81182353774747 2.636541489225607 89.11278775550403 H 0.0 **** 0.06
24004 H 57.62873817933419 3.482912437595118 88.08670013422767 H 0.0 **** 0.06
24005 H 57.59156730418013 1.7068834995157687 88.20980254640222 H 0.0 **** 0.06
24006 C 86.07935952830172 46.54842977707182 100.60947509789872 C 0.0 **** -0.24
24007 H 86.40079368946562 47.29641418588125 99.88354185603305 H 0.0 **** 0.06
24008 H 85.74989712884798 47.04626456439189 101.5208968229581 H 0.0 **** 0.06
24009 H 86.91222392891888 45.88312227155103 100.83785505131675 H 0.0 **** 0.06
24010 H 85.25516891693451 45.969020627211194 100.19208977521032 H 0.0 **** 0.06
24011 C 106.97341039262261 62.771093466721595 16.388786837825137 C 0.0 **** -0.24
24012 H 107.0204337320067 62.800734693437846 17.476796809947615 H 0.0 **** 0.06
24013 H 106.41039854139956 61.89159848591933 16.073747317370433 H 0.0 **** 0.06
24014 H 107.98390333102603 62.72071014326366 15.982734950264643 H 0.0 **** 0.06
24015 H 106.478625806416 63.6699510929551 16.021731373119408 H 0.0 **** 0.06
24016 C 93.81856167227798 111.68007597038674 95.90018843071172 C 0.0 **** -0.24
24017 H 94.31650851708125 110.74509543915207 96.15737693338383 H 0.0 **** 0.06
24018 H 94.55866029085888 112.47789270615178 95.83160920369053 H 0.0 **** 0.06
24019 H 93.08768669899342 111.92673220474241 96.66898029137008 H 0.0 **** 0.06
24020 H 93.31286497700506 111.56951647603057 94.94040195407919 H 0.0 **** 0.06
24021 C 30.949043170548627 27.465707633947524 86.67264153219665 C 0.0 **** -0.24
24022 H 31.7957652987795 26.838782140739454 86.39195545991535 H 0.0 **** 0.06
24023 H 31.28097972110786 28.500277921445736 86.77141978408315 H 0.0 **** 0.06
24024 H 30.5434375476177 27.12174700266774 87.62384850427011 H 0.0 **** 0.06
24025 H 30.179450865738808 27.402488937396498 85.90468676251967 H 0.0 **** 0.06
24026 C 9.194996253398084 48.938562587219565 63.19561710815407 C 0.0 **** -0.24
24027 H 9.713024974580591 48.21466015346317 62.56753271256241 H 0.0 **** 0.06
24028 H 8.92106481032032 49.807807014680634 62.59765869530139 H 0.0 **** 0.06
24029 H 9.851162520299223 49.24965949914841 64.00881889235936 H 0.0 **** 0.06
24030 H 8.295264739286022 48.482966038859445 63.60837190066886 H 0.0 **** 0.06
24031 C 53.4357789508103 12.92712003106584 47.95425486686172 C 0.0 **** -0.24
24032 H 52.503958284027746 12.434250809884702 47.67703700582047 H 0.0 **** 0.06
24033 H 54.25161520213302 12.2051756115236 47.92554934667434 H 0.0 **** 0.06
24034 H 53.34455177475609 13.333191262631829 48.962734143803814 H 0.0 **** 0.06
24035 H 53.640766773080166 13.737170900177347 47.25421761049417 H 0.0 **** 0.06
24036 C 57.14545030277629 21.51925513842309 8.886937243865948 C 0.0 **** -0.24
24037 H 56.183090246490245 21.287458464219355 8.429085658049278 H 0.0 **** 0.06
24038 H 57.834214802339865 21.87783821918441 8.121550251461393 H 0.0 **** 0.06
24039 H 57.55234982088937 20.6202120168428 9.349778269356896 H 0.0 **** 0.06
24040 H 57.009737733948334 22.28907485534154 9.645831310558165 H 0.0 **** 0.06
24041 C 114.99507932638842 44.51408072287222 1.9649977250228758 C 0.0 **** -0.24
24042 H 114.05556376132819 44.16993293706102 1.5326791280272705 H 0.0 **** 0.06
24043 H 115.79444434045325 44.40217529347271 1.231886295175693 H 0.0 **** 0.06
24044 H 115.22623496750475 43.91919315660793 2.8490217430644353 H 0.0 **** 0.06
24045 H 114.90311848731577 45.56281790562218 2.2459230593505026 H 0.0 **** 0.06
24046 C 21.643871881578065 46.626837287752835 21.04795207289027 C 0.0 **** -0.24
24047 H 22.642111380768682 46.889529475405226 21.39662559515682 H 0.0 **** 0.06
24048 H 20.90270337306879 47.21001966987521 21.596038034755225 H 0.0 **** 0.06
24049 H 21.466843314094973 45.56501772057868 21.216411587853003 H 0.0 **** 0.06
24050 H 21.562559112428374 46.8445605787326 19.98225959106398 H 0.0 **** 0.06
24051 C 49.12032663518073 95.48063434641472 94.52568385132099 C 0.0 **** -0.24
24052 H 48.93685809720034 96.54822231305968 94.64402132482095 H 0.0 **** 0.06
24053 H 49.18676492747426 95.23980772463307 93.46427718416723 H 0.0 **** 0.06
24054 H 48.30199955088233 94.91912936633207 94.97578214777556 H 0.0 **** 0.06
24055 H 50.056546327864226 95.21615865411775 95.01785038655817 H 0.0 **** 0.06
24056 C 90.21203208833663 60.72143074506576 30.27821169862039 C 0.0 **** -0.24
24057 H 91.28910259039483 60.57646939408886 30.197459726331687 H 0.0 **** 0.06
24058 H 89.7808196518431 60.80120606333588 29.279370663694245 H 0.0 **** 0.06
24059 H 90.01027003791836 61.63631372924627 30.836061873043022 H 0.0 **** 0.06
24060 H 89.76898440397883 59.87338587256042 30.798871974055437 H 0.0 **** 0.06
24061 C 64.35583600200161 115.00028662169709 42.935273178743756 C 0.0 **** -0.24
24062 H 64.70926741361589 115.38162285317497 43.893899568394744 H 0.0 **** 0.06
24063 H 63.52535349092154 114.31448152901154 43.10203866535008 H 0.0 **** 0.06
24064 H 65.16752882662249 114.47503578314853 42.432037769527454 H 0.0 **** 0.06
24065 H 64.02136483302661 115.83278701538363 42.31561460514948 H 0.0 **** 0.06
24066 C 15.393915203141859 106.2103557319484 7.640166569147379 C 0.0 **** -0.24
24067 H 16.36812370053242 106.12277317895078 7.159085833238333 H 0.0 **** 0.06
24068 H 15.316574287091107 107.18019577177574 8.131393844232747 H 0.0 **** 0.06
24069 H 15.281848887694004 105.41750729600065 8.37979896086047 H 0.0 **** 0.06
24070 H 14.60898277873541 106.1190966136086 6.888787513513947 H 0.0 **** 0.06
24071 C 99.51917262014311 66.0062448877888 82.93738014310804 C 0.0 **** -0.24
24072 H 100.52440557226345 65.86053751467637 83.33252015423221 H 0.0 **** 0.06
24073 H 98.79260079528387 65.5772518517407 83.62784517596202 H 0.0 **** 0.06
24074 H 99.43491763612249 65.51416245700386 81.96880618833134 H 0.0 **** 0.06
24075 H 99.32611164446328 67.07230953801997 82.82198460291488 H 0.0 **** 0.06
24076 C 111.525854208961 71.22950433103796 28.002507695358076 C 0.0 **** -0.24
24077 H 112.54096939278259 70.84176283593746 28.08370020930181 H 0.0 **** 0.06
24078 H 111.08163793646975 71.29559135775594 28.996714965950275 H 0.0 **** 0.06
24079 H 110.92954864008931 70.56029551617655 27.381706727603103 H 0.0 **** 0.06
24080 H 111.55047607589296 72.2203389470863 27.549085058412857 H 0.0 **** 0.06
24081 C 107.21628006120488 63.271600880139175 62.57960830984496 C 0.0 **** -0.24
24082 H 106.80987711828044 63.904885431547086 63.36915880347806 H 0.0 **** 0.06
24083 H 106.41690263896288 62.98828586794562 61.8937832598466 H 0.0 **** 0.06
24084 H 107.65116342461852 62.375313153549456 63.02188010196005 H 0.0 **** 0.06
24085 H 107.98607328243708 63.818153164307944 62.0355416595105 H 0.0 **** 0.06
24086 C 79.68539913220519 74.73751397156931 105.01435572034345 C 0.0 **** -0.24
24087 H 80.37009459518697 75.58413057824094 104.94884147460445 H 0.0 **** 0.06
24088 H 80.18832424219966 73.83608699116468 104.66264082633054 H 0.0 **** 0.06
24089 H 78.80978011025894 74.92972730157564 104.3957243023452 H 0.0 **** 0.06
24090 H 79.37560183969669 74.60038476622788 106.05047434318087 H 0.0 **** 0.06
24091 C 19.75778958161584 28.276573678863855 36.89833312331538 C 0.0 **** -0.24
24092 H 20.7666166550174 27.865404843671286 36.889694732886085 H 0.0 **** 0.06
24093 H 19.180829736038845 27.840908405302912 36.08237681514592 H 0.0 **** 0.06
24094 H 19.806001462441372 29.358608142032978 36.77154326382174 H 0.0 **** 0.06
24095 H 19.278280696793445 28.043380334826367 37.84891328913963 H 0.0 **** 0.06
24096 C 87.65727618877915 23.82259963622755 90.51581883529164 C 0.0 **** -0.24
24097 H 88.50066491756849 23.97190658014756 89.84009878942953 H 0.0 **** 0.06
24098 H 88.0083011512748 23.355537005516396 91.43681266336719 H 0.0 **** 0.06
24099 H 86.92041137590394 23.177677977501048 90.03826066740729 H 0.0 **** 0.06
24100 H 87.2031363060187 24.786274294960094 90.74692638842109 H 0.0 **** 0.06
24101 C 42.01566318290338 13.012206240594338 54.91039688862887 C 0.0 **** -0.24
24102 H 41.21680751209334 12.761358856133086 54.21268078272334 H 0.0 **** 0.06
24103 H 42.95916768442805 13.08862419682842 54.36961676408086 H 0.0 **** 0.06
24104 H 42.09336084842903 12.234073998198852 55.66945408769405 H 0.0 **** 0.06
24105 H 41.79402856136102 13.96653630570566 55.389230734443004 H 0.0 **** 0.06
24106 C 107.4283967260223 35.202992118207874 41.42833021741484 C 0.0 **** -0.24
24107 H 106.49515696221519 35.735324488708386 41.246104188224706 H 0.0 **** 0.06
24108 H 107.98928125020686 35.71051914285778 42.213709419648694 H 0.0 **** 0.06
24109 H 108.02057096091292 35.18297454537583 40.51339877434373 H 0.0 **** 0.06
24110 H 107.2085923877905 34.181121037248715 41.741047735722134 H 0.0 **** 0.06
24111 C 39.58042382717463 6.209373183591509 83.7974537372009 C 0.0 **** -0.24
24112 H 40.40480173784255 6.220077754748445 83.08384453637507 H 0.0 **** 0.06
24113 H 39.97204678878671 6.332689764784277 84.80672822599732 H 0.0 **** 0.06
24114 H 39.05141230907037 5.259273423969432 83.72631443381161 H 0.0 **** 0.06
24115 H 38.894326855377585 7.02574264499782 83.57089813434163 H 0.0 **** 0.06
24116 C 92.62667156420963 17.08306692840452 19.737248961289307 C 0.0 **** -0.24
24117 H 92.84924584879192 17.070640583406885 20.80363058644383 H 0.0 **** 0.06
24118 H 91.58664951487577 17.375035331744783 19.586825424243106 H 0.0 **** 0.06
24119 H 92.78943944491078 16.089501489105373 19.320474608705123 H 0.0 **** 0.06
24120 H 93.28100168098214 17.798457406849565 19.237971287356938 H 0.0 **** 0.06
24121 C 20.203100757512768 13.347944359948798 64.50506965132314 C 0.0 **** -0.24
24122 H 21.208691305628857 13.751602228082021 64.62359623062605 H 0.0 **** 0.06
24123 H 19.592738664429675 13.637112359965698 65.36066041668235 H 0.0 **** 0.06
24124 H 20.251969145520537 12.26112662066464 64.44369696947942 H 0.0 **** 0.06
24125 H 19.7594035578032 13.743785481435339 63.59113299390129 H 0.0 **** 0.06
24126 C 24.749575214949914 9.216341548750705 59.65163802305866 C 0.0 **** -0.24
24127 H 25.648653370253157 8.637711029602542 59.86472905790587 H 0.0 **** 0.06
24128 H 24.597162869118563 9.26758996469431 58.57392164079203 H 0.0 **** 0.06
24129 H 24.863119203026542 10.223386792728093 60.05119042883468 H 0.0 **** 0.06
24130 H 23.88904657778977 8.734853822844755 60.117963770826655 H 0.0 **** 0.06
24131 C 106.94729652419522 37.230951931023355 87.29638054289975 C 0.0 **** -0.24
24132 H 106.72029035845645 36.37011483296101 87.92515812730409 H 0.0 **** 0.06
24133 H 106.50542109958576 38.12652272814461 87.73357002721886 H 0.0 **** 0.06
24134 H 106.53659235187746 37.07089840959311 86.30004804004963 H 0.0 **** 0.06
24135 H 108.02870668635637 37.3543180481671 87.22843570716762 H 0.0 **** 0.06
24136 C 65.51633244690547 106.69492174693488 91.36315015239006 C 0.0 **** -0.24
24137 H 65.71217401477443 105.6375070496442 91.1825266042247 H 0.0 **** 0.06
24138 H 64.98821814562083 106.809332268894 92.31077887571163 H 0.0 **** 0.06
24139 H 64.90404914250789 107.0943527146205 90.55500252143972 H 0.0 **** 0.06
24140 H 66.46046769338494 107.23679152948202 91.40600188549837 H 0.0 **** 0.06
24141 C 50.08883777893567 107.47525628292593 33.688791028239024 C 0.0 **** -0.24
24142 H 49.88464181049136 108.0438124931296 34.59592850226511 H 0.0 **** 0.06
24143 H 49.42815014243513 107.81309716849572 32.8910988036358 H 0.0 **** 0.06
24144 H 49.91738727991762 106.41523871685135 33.87937730424656 H 0.0 **** 0.06
24145 H 51.126519037379325 107.6272765902848 33.39091012606454 H 0.0 **** 0.06
24146 C 19.62415317587094 2.666103327227148 91.51230598353891 C 0.0 **** -0.24
24147 H 19.913148236154537 2.2974310865251795 92.49646206736043 H 0.0 **** 0.06
24148 H 20.517069299626804 2.952852263684534 90.95539620220774 H 0.0 **** 0.06
24149 H 18.972229952073747 3.531909988885104 91.62493572096577 H 0.0 **** 0.06
24150 H 19.095698358315886 1.8811538185808558 90.9708446529863 H 0.0 **** 0.06
24151 C 21.59430486633687 111.51947485024591 66.18606318201 C 0.0 **** -0.24
24152 H 21.967490977015814 110.4962783829245 66.14453397777527 H 0.0 **** 0.06
24153 H 21.1893031283403 111.79857839576718 65.21292679888174 H 0.0 **** 0.06
24154 H 22.410472386202827 112.19296992493493 66.44727100051406 H 0.0 **** 0.06
24155 H 20.81034955911622 111.58989053856098 66.94042072684644 H 0.0 **** 0.06
24156 C 77.1230019997057 36.137430693221546 83.53055457470526 C 0.0 **** -0.24
24157 H 78.03526205319076 35.724336178812166 83.10147880053452 H 0.0 **** 0.06
24158 H 76.33285357116608 35.38689598170433 83.49635343234249 H 0.0 **** 0.06
24159 H 76.81759094712697 37.013673497533944 82.95933555970194 H 0.0 **** 0.06
24160 H 77.3064113206068 36.42497784627162 84.56603139738462 H 0.0 **** 0.06
24161 C 94.03231177956474 19.703152612209635 37.8344893277738 C 0.0 **** -0.24
24162 H 93.41662116702221 20.567759824386343 37.58872329227262 H 0.0 **** 0.06
24163 H 94.17443507197652 19.092694352560898 36.94244825188201 H 0.0 **** 0.06
24164 H 93.53859552229494 19.112218579853277 38.60544960638745 H 0.0 **** 0.06
24165 H 95.00180085068726 20.040251642506547 38.2015298751293 H 0.0 **** 0.06
24166 C 12.468218136171686 51.0367934364247 114.66507888189894 C 0.0 **** -0.24
24167 H 11.694791373340252 50.97206782515718 113.90000033376343 H 0.0 **** 0.06
24168 H 12.005313969134136 51.03099994601172 115.65243332690824 H 0.0 **** 0.06
24169 H 13.033698811864951 51.959236923862704 114.53415459046072 H 0.0 **** 0.06
24170 H 13.140648896629557 50.18309061426851 114.57430995580724 H 0.0 **** 0.06
24171 C 12.706348314609613 72.53672920874877 117.83085380317108 C 0.0 **** -0.24
24172 H 12.368792885181051 73.12586179003762 116.97792547870743 H 0.0 **** 0.06
24173 H 12.430976718757279 73.04490911033969 118.75513041562517 H 0.0 **** 0.06
24174 H 13.790128298665195 72.42289797798125 117.786649192887 H 0.0 **** 0.06
24175 H 12.236282470581386 71.5546377610321 117.80137573848238 H 0.0 **** 0.06
24176 C 4.297679950435892 83.99786746772884 82.38912396365757 C 0.0 **** -0.24
24177 H 4.8783962049567435 83.74416240288801 83.27594578228423 H 0.0 **** 0.06
24178 H 3.2679506094219732 84.20948298454752 82.67717765012969 H 0.0 **** 0.06
24179 H 4.315599119660192 83.16151074056248 81.69103096010946 H 0.0 **** 0.06
24180 H 4.729809642768629 84.8782758056856 81.91262033932307 H 0.0 **** 0.06
24181 C 79.52766787373085 95.41212275402648 47.90415931546465 C 0.0 **** -0.24
24182 H 78.62707034868612 95.8329112921839 48.35154693767777 H 0.0 **** 0.06
24183 H 79.26374659357012 94.86874173901705 46.99683070732601 H 0.0 **** 0.06
24184 H 79.9997147585762 94.73061029159732 48.6115743627289 H 0.0 **** 0.06
24185 H 80.22071277782197 96.21637302201864 47.65749186913217 H 0.0 **** 0.06
24186 C 62.79049157830042 118.40513219896278 14.520873883696705 C 0.0 **** -0.24
24187 H 61.71351397444917 118.57286771816567 14.534824222522122 H 0.0 **** 0.06
24188 H 63.277777223511606 119.11998490947062 15.183536573975495 H 0.0 **** 0.06
24189 H 63.164034525504064 118.53667625869747 13.50553533150882 H 0.0 **** 0.06
24190 H 63.003513479638315 117.39050603332606 14.858610512002635 H 0.0 **** 0.06
24191 C 66.03295985646216 3.1092128314242586 15.330368773810164 C 0.0 **** -0.24
24192 H 65.46949724268433 2.98901646808919 16.255977395560503 H 0.0 **** 0.06
24193 H 65.94585863407997 2.202025613539476 14.731851156065769 H 0.0 **** 0.06
24194 H 67.08193322279317 3.2901072227723773 15.564795010627588 H 0.0 **** 0.06
24195 H 65.63524649989728 3.954774077809276 14.76966047075478 H 0.0 **** 0.06
24196 C 17.48202695678806 16.80788415251898 79.10289136919693 C 0.0 **** -0.24
24197 H 18.465885072129936 16.5287883973469 78.72425248573165 H 0.0 **** 0.06
24198 H 16.73581295239454 16.110907552510923 78.72189684383147 H 0.0 **** 0.06
24199 H 17.23860323710653 17.817979640099054 78.77179073384787 H 0.0 **** 0.06
24200 H 17.48877925340379 16.7745365052765 80.19236138261749 H 0.0 **** 0.06
24201 C 116.90570429750048 33.33322602522132 89.65485920970377 C 0.0 **** -0.24
24202 H 116.7798225986277 32.264736202218344 89.82774884085032 H 0.0 **** 0.06
24203 H 117.60317189601318 33.48902750563164 88.83134815089707 H 0.0 **** 0.06
24204 H 117.29752334740445 33.804185715922834 90.55616401169385 H 0.0 **** 0.06
24205 H 115.94208008137494 33.77581831458106 89.40307757784265 H 0.0 **** 0.06
24206 C 23.72743689414264 34.22892414372541 46.81587052243099 C 0.0 **** -0.24
24207 H 23.925594766160287 34.5088433351724 47.85081753091548 H 0.0 **** 0.06
24208 H 22.736370250393378 34.58007986611659 46.526984408530424 H 0.0 **** 0.06
24209 H 23.772372910766393 33.14414835725012 46.71721029998036 H 0.0 **** 0.06
24210 H 24.477045006380507 34.68401397331763 46.167840010296665 H 0.0 **** 0.06
24211 C 73.54351457318643 94.77873930424093 66.08129009424161 C 0.0 **** -0.24
24212 H 73.28260281055731 95.2921348541482 65.15574504332037 H 0.0 **** 0.06
24213 H 74.61893784462887 94.60245928423524 66.10937440210859 H 0.0 **** 0.06
24214 H 73.01809446310773 93.82471189566996 66.12657796861336 H 0.0 **** 0.06
24215 H 73.2533261893318 95.39486213722157 66.9323793549587 H 0.0 **** 0.06
24216 C 46.44628347901167 15.749910220599773 111.70187101264139 C 0.0 **** -0.24
24217 H 46.21762631520586 14.747709116402632 111.3394935686562 H 0.0 **** 0.06
24218 H 46.05916622242222 15.867111319241232 112.71331978287444 H 0.0 **** 0.06
24219 H 45.982194349593016 16.487247672783568 111.04647162330542 H 0.0 **** 0.06
24220 H 47.526645045489914 15.895858320284958 111.70652188185022 H 0.0 **** 0.06
24221 C 27.161551720313582 52.81471200663586 25.933159529691522 C 0.0 **** -0.24
24222 H 27.170612198522797 53.88996778863705 26.11315817601036 H 0.0 **** 0.06
24223 H 28.144622496080252 52.496202339516145 25.584668378507274 H 0.0 **** 0.06
24224 H 26.413882707570274 52.579592414928044 25.1751302157341 H 0.0 **** 0.06
24225 H 26.916920500522203 52.293193548955685 26.85796089980255 H 0.0 **** 0.06
24226 C 91.54446300798173 86.4456994174578 87.03151533496228 C 0.0 **** -0.24
24227 H 90.81896282048413 86.75894971937748 87.78169281073491 H 0.0 **** 0.06
24228 H 92.55340112686807 86.57982168075759 87.42414082689481 H 0.0 **** 0.06
24229 H 91.42071458845177 87.04796538915573 86.1311100727784 H 0.0 **** 0.06
24230 H 91.38580714021717 85.39414907286306 86.78964380819784 H 0.0 **** 0.06
24231 C 107.46507218909184 25.299610485674087 59.869348920970374 C 0.0 **** -0.24
24232 H 106.77470796489541 24.97688958006068 59.090172425882464 H 0.0 **** 0.06
24233 H 108.3429860850465 25.755164649050656 59.409374719078436 H 0.0 **** 0.06
24234 H 107.77130232503322 24.43773371471613 60.461741587761416 H 0.0 **** 0.06
24235 H 106.97279441357554 26.02722001475886 60.51299433028435 H 0.0 **** 0.06
24236 C 26.122298363096462 58.46784751108631 72.04092855604151 C 0.0 **** -0.24
24237 H 26.476492625889065 57.64749699759849 72.66535712868287 H 0.0 **** 0.06
24238 H 25.344883454897833 58.103142521005886 71.36940870314712 H 0.0 **** 0.06
24239 H 26.95295147032995 58.862287532562355 71.45533135923469 H 0.0 **** 0.06
24240 H 25.71739677611393 59.257200045447455 72.67360683435888 H 0.0 **** 0.06
24241 C 106.9418404956387 66.93864756626886 68.02180126234322 C 0.0 **** -0.24
24242 H 106.52545224612123 66.99995128755182 69.02741812090136 H 0.0 **** 0.06
24243 H 107.4822032469938 65.99869782959817 67.90923944592777 H 0.0 **** 0.06
24244 H 107.62426087725456 67.77266033378777 67.86021644389382 H 0.0 **** 0.06
24245 H 106.13337409721439 66.98365942252462 67.2915823710469 H 0.0 **** 0.06
24246 C 85.02980604880278 81.54660464772707 53.07574480542766 C 0.0 **** -0.24
24247 H 85.54549618954175 80.81911663881183 52.448031089553524 H 0.0 **** 0.06
24248 H 85.52547375063634 82.51446634291634 52.99058066475433 H 0.0 **** 0.06
24249 H 85.05630680119157 81.21338301707289 54.11333414498699 H 0.0 **** 0.06
24250 H 83.99403029602823 81.63888961130334 52.74894877256932 H 0.0 **** 0.06
24251 C 85.7415571443101 73.80257562021384 102.51482163048365 C 0.0 **** -0.24
24252 H 86.82914929035661 73.85008447008207 102.55989652627119 H 0.0 **** 0.06
24253 H 85.3186321240047 74.64015569701576 103.07008251291785 H 0.0 **** 0.06
24254 H 85.39958813884428 72.8656072874528 102.95355511137154 H 0.0 **** 0.06
24255 H 85.41809079401281 73.8563921434903 101.47494138898517 H 0.0 **** 0.06
24256 C 40.8701686363779 9.680035206867814 9.15089022456414 C 0.0 **** -0.24
24257 H 41.07928394519248 10.513492198933431 8.480533021961694 H 0.0 **** 0.06
24258 H 41.764437166782734 9.064161774159757 9.255314293148043 H 0.0 **** 0.06
24259 H 40.059871419509705 9.078023777024708 8.740134572777439 H 0.0 **** 0.06
24260 H 40.57793443937602 10.064804991575027 10.127974641822934 H 0.0 **** 0.06
24261 C 81.81864625094167 69.78952721129795 74.31448998698218 C 0.0 **** -0.24
24262 H 80.96654497466668 70.35379682865701 74.69467262281378 H 0.0 **** 0.06
24263 H 81.80105019232388 68.78206479900606 74.73054701769854 H 0.0 **** 0.06
24264 H 82.74347915751153 70.28729057203932 74.60686359733054 H 0.0 **** 0.06
24265 H 81.7618344683572 69.73567616230773 73.22803844110726 H 0.0 **** 0.06
24266 C 92.13540403093697 117.23168493337452 3.17805590237141 C 0.0 **** -0.24
24267 H 93.21586063518669 117.15446217910008 3.0571190000352573 H 0.0 **** 0.06
24268 H 91.71674596615637 116.23688174406327 3.3350772197536287 H 0.0 **** 0.06
24269 H 91.69969648681337 117.67179621400543 2.281212241457238 H 0.0 **** 0.06
24270 H 91.91099968392248 117.86136510979267 4.039218578273216 H 0.0 **** 0.06
24271 C 45.41476300439358 30.664144381184684 113.58415731028802 C 0.0 **** -0.24
24272 H 46.02628131650911 29.847539171294642 113.9682430651938 H 0.0 **** 0.06
24273 H 45.34954966274765 30.588756976921616 112.49748132980068 H 0.0 **** 0.06
24274 H 45.869298729734496 31.61694895372932 113.85522977189001 H 0.0 **** 0.06
24275 H 44.4158252173836 30.60273793005183 114.01302438367497 H 0.0 **** 0.06
24276 C 67.46706337381733 77.20789571316308 94.3790425023737 C 0.0 **** -0.24
24277 H 66.50314526282466 76.92086749187686 93.95967249479722 H 0.0 **** 0.06
24278 H 68.26281435083746 76.67292057439735 93.86089238831596 H 0.0 **** 0.06
24279 H 67.49114133300108 76.95707842602141 95.43980899195498 H 0.0 **** 0.06
24280 H 67.61061557852415 78.28183261680974 94.25647859452019 H 0.0 **** 0.06
24281 C 103.48246045576269 3.3730590441719457 93.26512860980264 C 0.0 **** -0.24
24282 H 103.95878819188499 4.35179104863483 93.31260554457185 H 0.0 **** 0.06
24283 H 104.1709206170625 2.655833120287017 92.81579768759934 H 0.0 **** 0.06
24284 H 102.57827350046847 3.4381584887507177 92.66115634889678 H 0.0 **** 0.06
24285 H 103.2245051590188 3.0460766318289174 94.27231832562413 H 0.0 **** 0.06
24286 C 49.0722587001826 110.13271359400206 6.261818214273276 C 0.0 **** -0.24
24287 H 49.17332591468556 110.49842538675306 7.284101896015017 H 0.0 **** 0.06
24288 H 48.45713468669692 110.82480300067247 5.6873469545272854 H 0.0 **** 0.06
24289 H 48.60065739295993 109.14993796873227 6.2736446163852975 H 0.0 **** 0.06
24290 H 50.0584441188405 110.05643649761839 5.8050352996986305 H 0.0 **** 0.06
24291 C 118.26018191552001 102.86392773183789 48.50410076842161 C 0.0 **** -0.24
24292 H 117.35794744125997 102.26766564032144 48.36702759425279 H 0.0 **** 0.06
24293 H 118.48139634829543 102.94891495829503 49.56807441514442 H 0.0 **** 0.06
24294 H 118.10486719159212 103.85792249405424 48.084573270735035 H 0.0 **** 0.06
24295 H 119.09514846251372 102.38131702000294 47.99638695042168 H 0.0 **** 0.06
24296 C 96.28482590475318 44.53369416156022 41.72358136110165 C 0.0 **** -0.24
24297 H 96.30554420253102 43.56466087711863 41.224003669977705 H 0.0 **** 0.06
24298 H 95.59210892670521 44.49332757873634 42.56529592428312 H 0.0 **** 0.06
24299 H 95.9575093442181 45.298711175335995 41.019986756355884 H 0.0 **** 0.06
24300 H 97.28386209314954 44.776093396156966 42.08644896512789 H 0.0 **** 0.06
24301 C 77.06331019411684 37.214161645088005 10.787662820467862 C 0.0 **** -0.24
24302 H 77.33395558633123 38.268295260364724 10.841103583914194 H 0.0 **** 0.06
24303 H 76.04682275805607 37.08143810371259 11.159922677846726 H 0.0 **** 0.06
24304 H 77.75276580847517 36.63115184974598 11.397348835618637 H 0.0 **** 0.06
24305 H 77.11771864701109 36.87716312604211 9.752626941119374 H 0.0 **** 0.06
24306 C 91.20371780602562 8.58473184059413 18.64712140840271 C 0.0 **** -0.24
24307 H 90.30016711864337 8.862140030605985 19.18935049086525 H 0.0 **** 0.06
24308 H 91.04130840472891 7.637986648792847 18.130658074199772 H 0.0 **** 0.06
24309 H 92.02962911838674 8.477542187521763 19.35124251156509 H 0.0 **** 0.06
24310 H 91.44395038468389 9.35951304431552 17.91966769159265 H 0.0 **** 0.06
24311 C 29.11141949481518 93.36816761427121 110.65488798616131 C 0.0 **** -0.24
24312 H 28.04551260762227 93.21158185180099 110.49046793537981 H 0.0 **** 0.06
24313 H 29.494541203026273 94.07210859505597 109.91619494133842 H 0.0 **** 0.06
24314 H 29.637111699838528 92.41715026973179 110.55819049757898 H 0.0 **** 0.06
24315 H 29.269022946745906 93.76894699189916 111.65625735734739 H 0.0 **** 0.06
24316 C 99.21475084902164 77.75652429795889 3.534094254029185 C 0.0 **** -0.24
24317 H 99.1371107771507 77.52517360580742 2.4714680346130393 H 0.0 **** 0.06
24318 H 99.8756552996835 78.61305688110932 3.6716619987983563 H 0.0 **** 0.06
24319 H 99.6198503197391 76.89524410836432 4.0654053011596005 H 0.0 **** 0.06
24320 H 98.22603792111715 77.99345497400054 3.9274111578890825 H 0.0 **** 0.06
24321 C 114.05999391824247 105.2867935583545 74.21359991326813 C 0.0 **** -0.24
24322 H 114.79992874194625 105.49545112155883 74.98656438295677 H 0.0 **** 0.06
24323 H 113.24713042243516 104.6985973453449 74.64031616882392 H 0.0 **** 0.06
24324 H 114.52830922212164 104.72669893308671 73.40420176715088 H 0.0 **** 0.06
24325 H 113.6659710750067 106.22540246375675 73.82476337715127 H 0.0 **** 0.06
24326 C 15.44764577251459 105.66676093247852 104.16578738603829 C 0.0 **** -0.24
24327 H 15.211104066496574 104.76999928888819 103.59390182800371 H 0.0 **** 0.06
24328 H 15.036455195258782 105.5754003661356 105.17146684146837 H 0.0 **** 0.06
24329 H 15.013277712527412 106.53719219158427 103.67259425294151 H 0.0 **** 0.06
24330 H 16.529462193414872 105.78519895142355 104.22458550953797 H 0.0 **** 0.06
24331 C 111.11114471689795 79.45060010922097 96.36940091946812 C 0.0 **** -0.24
24332 H 111.9780346589224 79.51305529590499 97.02727761995263 H 0.0 **** 0.06
24333 H 110.28346898108734 78.98447061328034 96.9038078127472 H 0.0 **** 0.06
24334 H 111.36264309340021 78.85144159362619 95.49451968004502 H 0.0 **** 0.06
24335 H 110.82258755440806 80.45291123414017 96.05401908977541 H 0.0 **** 0.06
24336 C 4.543957050864378 5.105811572790085 24.286546209952746 C 0.0 **** -0.24
24337 H 4.020217642600812 5.5942857953851775 25.10847233618756 H 0.0 **** 0.06
24338 H 5.61764779053965 5.2460354310633175 24.404732237589627 H 0.0 **** 0.06
24339 H 4.221751599101879 5.54279770222816 23.34118841496408 H 0.0 **** 0.06
24340 H 4.312575670536717 4.040234634826231 24.290912961271488 H 0.0 **** 0.06
24341 C 11.559177979373146 2.8325642594487306 24.975418145876176 C 0.0 **** -0.24
24342 H 10.797446595344297 3.611444713226632 24.922529590468514 H 0.0 **** 0.06
24343 H 11.305031243650717 2.028396381982219 24.28513848451348 H 0.0 **** 0.06
24344 H 11.604887660769066 2.4390040765907486 25.99093652864508 H 0.0 **** 0.06
24345 H 12.526669429651918 3.253190670334604 24.70470210080981 H 0.0 **** 0.06
24346 C 88.71802886759363 99.15007538379541 27.800755275321393 C 0.0 **** -0.24
24347 H 89.77937396504817 99.38423868155013 27.884622527745222 H 0.0 **** 0.06
24348 H 88.17635333449977 99.61748439931876 28.624025637560607 H 0.0 **** 0.06
24349 H 88.5806797162283 98.06953420872577 27.8422468639871 H 0.0 **** 0.06
24350 H 88.33580701605197 99.52815090703882 26.8532180193331 H 0.0 **** 0.06
24351 C 90.1686104938405 30.440246157061324 69.91794422287882 C 0.0 **** -0.24
24352 H 90.2549344553799 29.36345241970892 70.06013752312919 H 0.0 **** 0.06
24353 H 91.10743631181936 30.919360905808446 70.19428941270095 H 0.0 **** 0.06
24354 H 89.36515447990038 30.826234502112413 70.54581605564456 H 0.0 **** 0.06
24355 H 89.94613786235269 30.65193025114428 68.87216110300389 H 0.0 **** 0.06
24356 C 106.07691963533497 36.91044433808577 108.89887792899589 C 0.0 **** -0.24
24357 H 105.48373809665594 37.65874265215376 109.42281853696579 H 0.0 **** 0.06
24358 H 107.0857659399947 36.891086223761135 109.31356707029977 H 0.0 **** 0.06
24359 H 106.12512422356971 37.16151740754924 107.83876601751095 H 0.0 **** 0.06
24360 H 105.61528182816687 35.93062022840746 109.01936773653307 H 0.0 **** 0.06
24361 C 91.80435196826778 3.9500314506612426 86.59883101460025 C 0.0 **** -0.24
24362 H 91.40599017299073 4.939683308735823 86.37297329752528 H 0.0 **** 0.06
24363 H 92.65792693283754 3.7464014105518686 85.95174508888203 H 0.0 **** 0.06
24364 H 91.03172929081859 3.2007930699151075 86.42796387022804 H 0.0 **** 0.06
24365 H 92.12039558360928 3.914700711390992 87.64121900282078 H 0.0 **** 0.06
24366 C 9.386597011290519 57.461441410681374 107.55463769455687 C 0.0 **** -0.24
24367 H 9.127001210562298 56.833888310107255 108.4068405213271 H 0.0 **** 0.06
24368 H 9.669782492270542 58.45323406147432 107.90684626688181 H 0.0 **** 0.06
24369 H 8.527898037477797 57.542815383071 106.8885259215842 H 0.0 **** 0.06
24370 H 10.223247224983965 57.01421547569049 107.01735100614368 H 0.0 **** 0.06
24371 C 73.95298381298633 38.340292933821985 36.34294859033264 C 0.0 **** -0.24
24372 H 74.9025419568776 38.84270002955304 36.53007707189599 H 0.0 **** 0.06
24373 H 73.72379935285633 38.38277633255959 35.27788274822731 H 0.0 **** 0.06
24374 H 73.16300755806841 38.837110543125135 36.90560773427677 H 0.0 **** 0.06
24375 H 74.02475967962076 37.299081073016964 36.65805124362373 H 0.0 **** 0.06
24376 C 117.75091473397538 62.75393517742674 13.7977998692826 C 0.0 **** -0.24
24377 H 117.212909119004 63.56578626451585 13.307883175053057 H 0.0 **** 0.06
24378 H 117.75313519035387 61.87644488838674 13.150892260923598 H 0.0 **** 0.06
24379 H 117.25989847232978 62.5093580482756 14.740214153960128 H 0.0 **** 0.06
24380 H 118.77758688631872 63.064526259389766 13.993127988583435 H 0.0 **** 0.06
24381 C 10.368023371960536 0.02699574850389297 58.92504096061026 C 0.0 **** -0.24
24382 H 9.689857015398324 0.2423381679796659 58.098187458653 H 0.0 **** 0.06
24383 H 10.791408507677506 -0.9686890191061792 58.79728974561459 H 0.0 **** 0.06
24384 H 9.818870944411465 0.07094160150165685 59.865102602529475 H 0.0 **** 0.06
24385 H 11.170136178677748 0.7647948176303316 58.93765586324133 H 0.0 **** 0.06
24386 C 102.59925031794512 109.46562337118371 50.45396807292292 C 0.0 **** -0.24
24387 H 102.57360305892166 108.49264954976059 49.964046970508605 H 0.0 **** 0.06
24388 H 103.56927522269658 109.60587144531749 50.932034797700396 H 0.0 **** 0.06
24389 H 101.81274315911924 109.51348487377379 51.20719734935716 H 0.0 **** 0.06
24390 H 102.441561060283 110.24960375167896 49.713024449663834 H 0.0 **** 0.06
24391 C 72.88382948172998 71.5396356765342 76.76492914396528 C 0.0 **** -0.24
24392 H 73.1075080086016 72.57995257659522 76.99855739851603 H 0.0 **** 0.06
24393 H 73.7169812775494 70.90955393451304 77.07961434202898 H 0.0 **** 0.06
24394 H 72.73302822059907 71.43267388121532 75.69052989443239 H 0.0 **** 0.06
24395 H 71.97856575464883 71.23517540179193 77.2910899082448 H 0.0 **** 0.06
24396 C 44.02043576731273 110.31716303365005 85.04059233483596 C 0.0 **** -0.24
24397 H 44.26808779028008 109.4980363603515 84.3657275211456 H 0.0 **** 0.06
24398 H 43.03431056898927 110.14754381680042 85.47088279708345 H 0.0 **** 0.06
24399 H 44.01991724081819 111.25578951649247 84.48580078145835 H 0.0 **** 0.06
24400 H 44.76235059672999 110.3677103424328 85.83766192840358 H 0.0 **** 0.06
24401 C 88.98468752446735 5.605219213703819 35.18888429466401 C 0.0 **** -0.24
24402 H 88.84419174487613 5.934422017391171 34.159676357934615 H 0.0 **** 0.06
24403 H 89.82038648095022 4.90598513218211 35.23645118782002 H 0.0 **** 0.06
24404 H 88.07707957085398 5.113048471646522 35.539194682041455 H 0.0 **** 0.06
24405 H 89.19640938037111 6.468639328408074 35.8199913858802 H 0.0 **** 0.06
24406 C 16.143733642172606 117.74432397690872 16.973706023440457 C 0.0 **** -0.24
24407 H 16.09866101443609 116.94350134816733 16.235013124992886 H 0.0 **** 0.06
24408 H 15.320902138451146 117.6318941675738 17.68179824795841 H 0.0 **** 0.06
24409 H 16.060883536953696 118.70808988870743 16.471357843184858 H 0.0 **** 0.06
24410 H 17.09222865189136 117.6922560250937 17.507871437708964 H 0.0 **** 0.06
24411 C 100.58949245776523 38.647377643578864 86.01327558247945 C 0.0 **** -0.24
24412 H 101.29683675076058 38.21856377598971 85.30303173688108 H 0.0 **** 0.06
24413 H 99.81257048930598 37.91635670975292 86.23840499509973 H 0.0 **** 0.06
24414 H 100.13567069445452 39.5389171592584 85.58061213124725 H 0.0 **** 0.06
24415 H 101.11289189653982 38.915672929314155 86.93105346668986 H 0.0 **** 0.06
24416 C 36.73338032442007 62.60436225986131 46.91591539337662 C 0.0 **** -0.24
24417 H 36.431394458326494 63.25308303955756 46.09326024297681 H 0.0 **** 0.06
24418 H 37.48572552338 61.89804346473223 46.563028571985086 H 0.0 **** 0.06
24419 H 35.865509698121315 62.05873724233616 47.285085316581075 H 0.0 **** 0.06
24420 H 37.15243959952846 63.210024410052945 47.71990935877139 H 0.0 **** 0.06
24421 C 103.53138727573503 50.58694213023665 109.8530936286374 C 0.0 **** -0.24
24422 H 103.01574297103389 50.40979716956679 108.90878158518936 H 0.0 **** 0.06
24423 H 102.85470325582168 51.08386849103911 110.54803066114825 H 0.0 **** 0.06
24424 H 104.40188461694481 51.2187453033888 109.67732479483803 H 0.0 **** 0.06
24425 H 103.85328601619949 49.635059155389115 110.27525303163182 H 0.0 **** 0.06
24426 C 24.45618111989802 8.590635954750123 74.85563222858684 C 0.0 **** -0.24
24427 H 23.798518634292122 8.775658872035734 74.00525922286505 H 0.0 **** 0.06
24428 H 23.874010597472648 8.62217327830491 75.77724305666311 H 0.0 **** 0.06
24429 H 25.231651720125626 9.356403500909838 74.88881395177293 H 0.0 **** 0.06
24430 H 24.91821729868974 7.609305542072125 74.74994999879786 H 0.0 **** 0.06
24431 C 36.931861100362326 54.33027460769455 79.0912777695217 C 0.0 **** -0.24
24432 H 36.90132716712975 53.893971456617265 78.09216822043484 H 0.0 **** 0.06
24433 H 36.51893839266262 53.621581220797424 79.80938368726186 H 0.0 **** 0.06
24434 H 36.343614530620044 55.24793495090296 79.10545699944532 H 0.0 **** 0.06
24435 H 37.96450602629464 54.55683163053493 79.35597933914897 H 0.0 **** 0.06
24436 C 25.417405088627447 29.198412916936974 82.3366141427939 C 0.0 **** -0.24
24437 H 26.14648297907533 29.76113387720548 81.75297884320966 H 0.0 **** 0.06
24438 H 24.476960239041233 29.14647266299997 81.78831746736617 H 0.0 **** 0.06
24439 H 25.25411416759806 29.69768709423525 83.29201457029987 H 0.0 **** 0.06
24440 H 25.79274943266276 28.190572483064074 82.51235491158064 H 0.0 **** 0.06
24441 C 73.88740044658073 108.26566836172645 5.153269219436387 C 0.0 **** -0.24
24442 H 73.69488641431488 107.97119716792704 6.185038886354407 H 0.0 **** 0.06
24443 H 73.55040034591562 109.29182821172552 5.00033599057827 H 0.0 **** 0.06
24444 H 73.34829311899551 107.60148974641967 4.478903195667717 H 0.0 **** 0.06
24445 H 74.95679320756707 108.20076645232086 4.95069706484108 H 0.0 **** 0.06
24446 C 46.98948870619071 86.29792466331824 91.1566399285083 C 0.0 **** -0.24
24447 H 47.983834655268225 86.07121258295416 90.77069512367899 H 0.0 **** 0.06
24448 H 46.23722928852598 85.87675893227677 90.48974506413131 H 0.0 **** 0.06
24449 H 46.860332107896994 87.37781617161198 91.21604844294833 H 0.0 **** 0.06
24450 H 46.87910230528564 85.86323643436106 92.15068601571491 H 0.0 **** 0.06
24451 C 6.605164890440847 83.8845792283056 70.8618719658468 C 0.0 **** -0.24
24452 H 6.7225023873383805 84.65847136312999 71.6205955377277 H 0.0 **** 0.06
24453 H 5.6323217533753684 83.40673097069688 70.9769016849173 H 0.0 **** 0.06
24454 H 7.392244713295561 83.1397229620489 70.97810039368147 H 0.0 **** 0.06
24455 H 6.673751435964785 84.33406198987643 69.87116579853068 H 0.0 **** 0.06
24456 C 70.49851881280242 50.815315073610975 81.78488973535326 C 0.0 **** -0.24
24457 H 70.39543262826814 49.97152993086243 81.10267903818243 H 0.0 **** 0.06
24458 H 71.50876449369588 51.21951157289823 81.71247779887159 H 0.0 **** 0.06
24459 H 70.31236799379423 50.48122673855778 82.80582433356784 H 0.0 **** 0.06
24460 H 69.77705619336638 51.589102256551655 81.5176935478973 H 0.0 **** 0.06
24461 C 11.672764856817537 24.287471541440368 19.95046602166291 C 0.0 **** -0.24
24462 H 12.432956159326864 23.517209860566027 19.82171169586587 H 0.0 **** 0.06
24463 H 10.938099131639092 23.95380428457736 20.685111622933515 H 0.0 **** 0.06
24464 H 11.175762975482144 24.47089322471072 18.997325294623845 H 0.0 **** 0.06
24465 H 12.141795772281966 25.207905267433773 20.29783802853339 H 0.0 **** 0.06
24466 C 86.10211726269912 101.16911778560515 113.33226837213408 C 0.0 **** -0.24
24467 H 85.25442940674344 101.85291433595808 113.27312248074878 H 0.0 **** 0.06
24468 H 87.03021839880509 101.73480750747845 113.25773703387537 H 0.0 **** 0.06
24469 H 86.04630782063242 100.45081960812044 112.51527723863401 H 0.0 **** 0.06
24470 H 86.07399974770402 100.63895064793695 114.28483745006687 H 0.0 **** 0.06
24471 C 57.615949499696114 0.8785577593895084 2.6221528737219444 C 0.0 **** -0.24
24472 H 56.994448421947425 1.3615345914755324 1.8680505166171884 H 0.0 **** 0.06
24473 H 58.407497922704096 0.31230515363498057 2.1312408097051616 H 0.0 **** 0.06
24474 H 57.00291343992765 0.20401158421063315 3.219471706242686 H 0.0 **** 0.06
24475 H 58.05740831040865 1.6372400900670812 3.2684630272751463 H 0.0 **** 0.06
24476 C 90.5004347955354 29.026800832729407 117.81129425024494 C 0.0 **** -0.24
24477 H 90.74340317678505 30.08930854325066 117.78211649659985 H 0.0 **** 0.06
24478 H 91.31091687110873 28.456094281722066 117.35603662080231 H 0.0 **** 0.06
24479 H 89.57709550542796 28.85023304750979 117.25961686222902 H 0.0 **** 0.06
24480 H 90.37191156559277 28.712803037634693 118.84643126849153 H 0.0 **** 0.06
24481 C 71.39854679249228 7.1148925082272 95.42615005098992 C 0.0 **** -0.24
24482 H 70.56074116405375 6.947282149839822 94.74978696106982 H 0.0 **** 0.06
24483 H 71.15799865898796 6.71157937984006 96.40976261711944 H 0.0 **** 0.06
24484 H 71.59043739169164 8.18460644639947 95.50776891072687 H 0.0 **** 0.06
24485 H 72.28532754161327 6.61522698755266 95.0350159383548 H 0.0 **** 0.06
24486 C 61.99976459906174 48.59089413450138 62.073691635508965 C 0.0 **** -0.24
24487 H 62.88953120749748 48.43388058596253 61.46298567728519 H 0.0 **** 0.06
24488 H 61.27644207515109 47.80059040986245 61.87088590216891 H 0.0 **** 0.06
24489 H 61.55930006375309 49.55812753353396 61.831563325652695 H 0.0 **** 0.06
24490 H 62.27638516428896 48.570840865083994 63.12784129349626 H 0.0 **** 0.06
24491 C 1.020206378709446 102.99431860936915 35.17788855856841 C 0.0 **** -0.24
24492 H 0.17682021249201796 102.30929905977115 35.096160292188245 H 0.0 **** 0.06
24493 H 1.945377224102387 102.45966311029477 34.958740037807814 H 0.0 **** 0.06
24494 H 1.0637916675740087 103.39787883835083 36.18930489777469 H 0.0 **** 0.06
24495 H 0.8952406765489798 103.81089084966268 34.46607328999545 H 0.0 **** 0.06
24496 C 56.068559269026046 88.38056591300153 32.97742886746689 C 0.0 **** -0.24
24497 H 55.4208762051882 89.1544148374301 33.38791392918836 H 0.0 **** 0.06
24498 H 55.951731024503 88.34495269773407 31.894228314711505 H 0.0 **** 0.06
24499 H 55.79631638740984 87.41484769256019 33.40420134297317 H 0.0 **** 0.06
24500 H 57.106139928849736 88.6069622518722 33.224438350417245 H 0.0 **** 0.06
24501 C 58.404314279471436 7.16830552888851 56.17700594254225 C 0.0 **** -0.24
24502 H 58.6368439694684 7.370943457729311 57.222501225919245 H 0.0 **** 0.06
24503 H 57.32224874728746 7.148053833244603 56.043362077510125 H 0.0 **** 0.06
24504 H 58.824605365710056 6.204718015903751 55.89141883661691 H 0.0 **** 0.06
24505 H 58.832512565450656 7.95192200315546 55.552181165900436 H 0.0 **** 0.06
24506 C 74.3065533131603 104.72543735765652 4.300805009676793 C 0.0 **** -0.24
24507 H 75.274413385797 105.11985987571919 3.990785097880064 H 0.0 **** 0.06
24508 H 73.64828570334157 104.65394364733831 3.434639895117556 H 0.0 **** 0.06
24509 H 73.8636161967105 105.39154730197265 5.041298648706913 H 0.0 **** 0.06
24510 H 74.44091273292042 103.7349943461233 4.737910114736337 H 0.0 **** 0.06
24511 C 13.890947535203082 93.99364418004825 115.34158429697251 C 0.0 **** -0.24
24512 H 14.833137578234386 94.12916173386324 114.80876951254545 H 0.0 **** 0.06
24513 H 13.159518517604937 94.7123234842606 114.9723821824899 H 0.0 **** 0.06
24514 H 14.050864746730412 94.15185472793576 116.40768814899167 H 0.0 **** 0.06
24515 H 13.523172325336986 92.98111668590673 115.17589776371503 H 0.0 **** 0.06
24516 C 94.29131730619432 89.22711630386547 80.82821574511038 C 0.0 **** -0.24
24517 H 94.85709635899556 88.51406511275832 81.4282379606486 H 0.0 **** 0.06
24518 H 94.80760278099382 89.39537800579456 79.88205667118427 H 0.0 **** 0.06
24519 H 94.20629385548924 90.16974598396388 81.36857659561292 H 0.0 **** 0.06
24520 H 93.29532068877702 88.82907982554315 80.63305864380038 H 0.0 **** 0.06
24521 C 29.5599528267583 34.27789765816783 5.692012849343556 C 0.0 **** -0.24
24522 H 30.274887121320177 34.63560327428215 6.43307575154796 H 0.0 **** 0.06
24523 H 30.04989495218628 34.20242293330287 4.721003643459511 H 0.0 **** 0.06
24524 H 28.72621040786388 34.97755158856664 5.624926436836063 H 0.0 **** 0.06
24525 H 29.187718684704258 33.29739343771894 5.989985706175915 H 0.0 **** 0.06
24526 C 35.49000302151447 88.70369457675525 69.40567193370757 C 0.0 **** -0.24
24527 H 35.52905953728241 88.24116995663928 68.41962826725106 H 0.0 **** 0.06
24528 H 35.673912590592906 89.77491595962914 69.31141318001585 H 0.0 **** 0.06
24529 H 36.25118615918342 88.25843917183892 70.04550657043882 H 0.0 **** 0.06
24530 H 34.50594603644208 88.54136460753722 69.84395874052416 H 0.0 **** 0.06
24531 C 115.66602589139856 92.38205414301348 102.52442741723331 C 0.0 **** -0.24
24532 H 114.71553746278889 92.75533232368286 102.1442673609942 H 0.0 **** 0.06
24533 H 115.93573807187309 92.92788500900355 103.42802219336016 H 0.0 **** 0.06
24534 H 116.43964927360679 92.52384644763157 101.76903517524568 H 0.0 **** 0.06
24535 H 115.57321972816575 91.32044688976072 102.75426354437167 H 0.0 **** 0.06
24536 C 91.81660201436424 95.02029996638129 99.39565372953052 C 0.0 **** -0.24
24537 H 90.95257091500216 95.08017524796307 98.73432798290648 H 0.0 **** 0.06
24538 H 91.6696614937278 94.21282491354148 100.1125917064011 H 0.0 **** 0.06
24539 H 91.93141491872672 95.96481565980764 99.92852025842345 H 0.0 **** 0.06
24540 H 92.71192205678722 94.82527990573217 98.8058700996346 H 0.0 **** 0.06
24541 C 8.81923172355615 40.276254745775816 71.96729843467972 C 0.0 **** -0.24
24542 H 9.657913635088754 40.85610113948468 72.35445920513601 H 0.0 **** 0.06
24543 H 8.290347182832065 40.8619227373224 71.21441809856003 H 0.0 **** 0.06
24544 H 8.138760845759037 40.032460828402975 72.78294263345524 H 0.0 **** 0.06
24545 H 9.191601515241626 39.35599071155718 71.51733242525395 H 0.0 **** 0.06
24546 C 2.3589497357533418 78.9698166618559 57.57094698828405 C 0.0 **** -0.24
24547 H 3.262769715264497 79.57632277272393 57.51095227832411 H 0.0 **** 0.06
24548 H 2.0992319900567082 78.80716051460163 58.616708531795894 H 0.0 **** 0.06
24549 H 2.5343211533441092 78.00944678496859 57.0860561351119 H 0.0 **** 0.06
24550 H 1.5408306473382822 79.4866830038587 57.06832588927432 H 0.0 **** 0.06
24551 C 0.7670976957650453 111.6716379619783 104.9666467819525 C 0.0 **** -0.24
24552 H 0.579454194756849 112.73326533109034 105.12515474087485 H 0.0 **** 0.06
24553 H -0.12170318837654293 111.1018834658051 105.23923331465835 H 0.0 **** 0.06
24554 H 1.6060362546982248 111.35418185491585 105.58453526941017 H 0.0 **** 0.06
24555 H 1.001772027847565 111.49790582368578 103.91643314790977 H 0.0 **** 0.06
24556 C 35.072629377520855 64.97223163355918 63.74106393128619 C 0.0 **** -0.24
24557 H 34.970906082236866 65.65982440824536 64.57981242185252 H 0.0 **** 0.06
24558 H 35.77172561679561 65.38713835202554 63.01372113843962 H 0.0 **** 0.06
24559 H 34.10032036101887 64.82938131099363 63.269025203206326 H 0.0 **** 0.06
24560 H 35.447678514447034 64.01405735235826 64.09974445835931 H 0.0 **** 0.06
24561 C 27.1245593674077 112.36192034752276 88.37099889453444 C 0.0 **** -0.24
24562 H 26.247859832669064 112.99204418474818 88.22341703286378 H 0.0 **** 0.06
24563 H 27.34925931593952 111.83028322488671 87.44514382868797 H 0.0 **** 0.06
24564 H 26.924605429409752 111.64208961607982 89.16458675939938 H 0.0 **** 0.06
24565 H 27.97579012671426 112.9831824775997 88.64963509999183 H 0.0 **** 0.06
24566 C 9.864567875625482 18.391173102788827 37.21106138688944 C 0.0 **** -0.24
24567 H 8.844598105674677 18.68762579291038 37.455552765151396 H 0.0 **** 0.06
24568 H 9.844470972300456 17.634545158818042 36.426596060544085 H 0.0 **** 0.06
24569 H 10.346234253532955 17.98220791958863 38.098768827636945 H 0.0 **** 0.06
24570 H 10.42126151182508 19.261562111454225 36.8626007929995 H 0.0 **** 0.06
24571 C 70.38744663808876 14.30982615446618 36.9866789237127 C 0.0 **** -0.24
24572 H 70.86880708807013 15.233231842611218 37.3086938615275 H 0.0 **** 0.06
24573 H 71.02809083565626 13.46265761330315 37.23262825581588 H 0.0 **** 0.06
24574 H 70.22293421650667 14.340818117025606 35.9101243892153 H 0.0 **** 0.06
24575 H 69.43016936957059 14.202960345191258 37.49746511611477 H 0.0 **** 0.06
24576 C 53.202324152241886 23.670755704802986 18.016061529166535 C 0.0 **** -0.24
24577 H 53.99026121252098 23.842177777619384 17.282222807712714 H 0.0 **** 0.06
24578 H 52.230588981722406 23.84651821327006 17.55325493742461 H 0.0 **** 0.06
24579 H 53.33376098077321 24.352568066477005 18.855944735512452 H 0.0 **** 0.06
24580 H 53.25495421782699 22.642089175630275 18.371475044500897 H 0.0 **** 0.06
24581 C 83.35039731742256 42.642628450993534 44.02138200849332 C 0.0 **** -0.24
24582 H 83.2102886507399 42.132701742462736 44.974901240974035 H 0.0 **** 0.06
24583 H 83.42976312564858 41.90440208403441 43.223342867072624 H 0.0 **** 0.06
24584 H 84.26287500672936 43.238548151645006 44.05878263084791 H 0.0 **** 0.06
24585 H 82.49811269509712 43.29489974369213 43.83066845551586 H 0.0 **** 0.06
24586 C 116.95894832854083 4.844088784084093 99.17213911227537 C 0.0 **** -0.24
24587 H 116.43320725534491 4.585308729433947 98.25219788162525 H 0.0 **** 0.06
24588 H 116.9143842456212 4.003692253183942 99.86412048726496 H 0.0 **** 0.06
24589 H 116.48654619819793 5.7154820169653675 99.62615195385905 H 0.0 **** 0.06
24590 H 117.99978293933894 5.073546001483663 98.94370034232296 H 0.0 **** 0.06
24591 C 82.5551061041161 106.62830957350451 48.20575586077052 C 0.0 **** -0.24
24592 H 82.81162982522741 105.97701641979262 47.369396811957074 H 0.0 **** 0.06
24593 H 83.00489329320374 107.60921457517264 48.05240845983789 H 0.0 **** 0.06
24594 H 82.93391063348446 106.1963296393767 49.13206630391542 H 0.0 **** 0.06
24595 H 81.47226203356158 106.73019908517745 48.26753560077147 H 0.0 **** 0.06
24596 C 58.56393454914288 112.47536416488326 29.148963756132616 C 0.0 **** -0.24
24597 H 58.73256702165694 113.44348073945115 29.62078148361502 H 0.0 **** 0.06
24598 H 57.7473540323031 111.96229616201805 29.65616490550579 H 0.0 **** 0.06
24599 H 59.470674117028814 111.87496468238444 29.219450341258636 H 0.0 **** 0.06
24600 H 58.305030586912615 112.62285183608654 28.100107836528508 H 0.0 **** 0.06
24601 C 53.27171189921676 29.9785155638695 23.76676012311365 C 0.0 **** -0.24
24602 H 53.92219301771994 30.815010674048864 24.02363530138055 H 0.0 **** 0.06
24603 H 52.65963526073433 30.246279491412693 22.90576580823339 H 0.0 **** 0.06
24604 H 52.62685922309074 29.74761116626692 24.61484430043474 H 0.0 **** 0.06
24605 H 53.879965001190136 29.10741617278765 23.52408223125765 H 0.0 **** 0.06
24606 C 22.15861005970483 71.03217682406711 39.35963790484777 C 0.0 **** -0.24
24607 H 21.531779424110177 70.179562967718 39.09636694465823 H 0.0 **** 0.06
24608 H 21.58852699333971 71.95323800603194 39.23771099104769 H 0.0 **** 0.06
24609 H 23.03166205478123 71.05582863737354 38.70814782581077 H 0.0 **** 0.06
24610 H 22.481606541536266 70.93808428877776 40.39685316170092 H 0.0 **** 0.06
24611 C 30.670505390017922 94.33036355692033 5.0559171268936325 C 0.0 **** -0.24
24612 H 31.595350251416363 94.13806164147329 4.511861488835336 H 0.0 **** 0.06
24613 H 30.547261386801893 95.40441984677335 5.196787997003867 H 0.0 **** 0.06
24614 H 30.713176476951645 93.8392634613005 6.028899930921568 H 0.0 **** 0.06
24615 H 29.826666743112582 93.93831296894683 4.488738842775433 H 0.0 **** 0.06
24616 C 18.79508220935554 27.056883195736475 63.436034008607486 C 0.0 **** -0.24
24617 H 19.603894481403245 26.934450728461755 62.71493441063375 H 0.0 **** 0.06
24618 H 19.201236965734665 27.016313704652703 64.44709980465527 H 0.0 **** 0.06
24619 H 18.06689194322786 26.257149284415505 63.30396535858845 H 0.0 **** 0.06
24620 H 18.310470738070535 28.020015776667925 63.27774348752903 H 0.0 **** 0.06
24621 C 113.34754456442849 47.45193695505091 42.25697200580187 C 0.0 **** -0.24
24622 H 113.84202592044406 47.03068098381564 41.38146804446155 H 0.0 **** 0.06
24623 H 113.69391123865134 46.93680266627783 43.15231623831419 H 0.0 **** 0.06
24624 H 112.26855279200313 47.328212180149194 42.15888752297846 H 0.0 **** 0.06
24625 H 113.58567980598863 48.51288360027414 42.3323337048251 H 0.0 **** 0.06
24626 C 111.57989604074614 66.60224286416886 54.50472878877693 C 0.0 **** -0.24
24627 H 111.65732815985716 66.7019512833559 53.42185386810098 H 0.0 **** 0.06
24628 H 112.49924611835381 66.16697484938942 54.895973901015054 H 0.0 **** 0.06
24629 H 110.73754208430118 65.95445360045767 54.749997058261584 H 0.0 **** 0.06
24630 H 111.42377304349664 67.58512753535516 54.949707352322804 H 0.0 **** 0.06
24631 C 114.46571142728195 46.0264190385914 55.68053180038612 C 0.0 **** -0.24
24632 H 115.18400578240869 45.398290945196585 56.20625303355081 H 0.0 **** 0.06
24633 H 113.61893337476027 45.41882969752289 55.359153872755826 H 0.0 **** 0.06
24634 H 114.94293420542135 46.475070010623455 54.809364028742834 H 0.0 **** 0.06
24635 H 114.11514498630106 46.814315964532526 56.348341851456155 H 0.0 **** 0.06
24636 C 115.07631326802668 118.85784125593251 43.96299460162888 C 0.0 **** -0.24
24637 H 114.97273376997225 118.64852773386053 45.028075704288284 H 0.0 **** 0.06
24638 H 114.08983000796617 118.8720662300289 43.49848619856914 H 0.0 **** 0.06
24639 H 115.68659742468449 118.08406784811888 43.498633261019506 H 0.0 **** 0.06
24640 H 115.55442152651216 119.82792070518548 43.82895768303737 H 0.0 **** 0.06
24641 C 53.99474751329362 87.24963931915161 59.165629549299545 C 0.0 **** -0.24
24642 H 55.00970139737702 87.13516705554997 59.54684643003339 H 0.0 **** 0.06
24643 H 53.50076978549606 88.0685882138381 59.68812572881615 H 0.0 **** 0.06
24644 H 53.43884112855412 86.3262045323834 59.33010415819826 H 0.0 **** 0.06
24645 H 54.0294099848885 87.46767336507244 58.09771461806525 H 0.0 **** 0.06
24646 C 24.08999792192077 13.884109092908432 87.01980462005781 C 0.0 **** -0.24
24647 H 24.862720387731827 13.147564254561445 87.23990518264083 H 0.0 **** 0.06
24648 H 23.952022675456845 14.534523050765955 87.88418888088245 H 0.0 **** 0.06
24649 H 23.154165612258964 13.373158041902485 86.79640721127114 H 0.0 **** 0.06
24650 H 24.391437633411044 14.482471450473525 86.16021219277292 H 0.0 **** 0.06
24651 C 93.05161189054783 109.369869673307 80.10006248363067 C 0.0 **** -0.24
24652 H 92.63511677558256 110.36657831363944 79.94935958765566 H 0.0 **** 0.06
24653 H 92.2495179958002 108.67725160818779 80.35925410217715 H 0.0 **** 0.06
24654 H 93.78113759013007 109.39989549881227 80.90863542544469 H 0.0 **** 0.06
24655 H 93.53735479499474 109.03673776274275 79.18308074379149 H 0.0 **** 0.06
24656 C 92.88195204477228 59.833001895462615 0.07628437933215082 C 0.0 **** -0.24
24657 H 92.22021465076602 60.0445770797096 0.9165725261055115 H 0.0 **** 0.06
24658 H 93.57936586634659 59.042686101025 0.3541377232849925 H 0.0 **** 0.06
24659 H 93.43805327070206 60.73396341050969 -0.18381247776383702 H 0.0 **** 0.06
24660 H 92.28949538308262 59.51258124904669 -0.7802442171042259 H 0.0 **** 0.06
24661 C 39.87899631525708 88.40070156099176 8.630650607407183 C 0.0 **** -0.24
24662 H 40.0046344418161 89.24241023726216 7.948610129979837 H 0.0 **** 0.06
24663 H 40.47105782728136 87.55594179004575 8.27611885023773 H 0.0 **** 0.06
24664 H 38.827494018013645 88.11786503671053 8.666760462057482 H 0.0 **** 0.06
24665 H 40.21343912368359 88.68784610145156 9.626752759568404 H 0.0 **** 0.06
24666 C 62.69737875451219 11.29292901755219 6.037212429717613 C 0.0 **** -0.24
24667 H 61.735442158917834 11.350614522309751 5.528692137629093 H 0.0 **** 0.06
24668 H 62.69643955419838 10.443173608255126 6.720040699036076 H 0.0 **** 0.06
24669 H 62.86675122671153 12.211711383082985 6.600004208571647 H 0.0 **** 0.06
24670 H 63.49133440596819 11.16690006461494 5.300685626430379 H 0.0 **** 0.06
24671 C 4.972826340505705 43.20412551668 78.5842048190328 C 0.0 **** -0.24
24672 H 5.871909028583357 43.7520784311227 78.30098311331196 H 0.0 **** 0.06
24673 H 5.105047162583055 42.1470896834967 78.35550323886312 H 0.0 **** 0.06
24674 H 4.120321751719127 43.59354415688248 78.02731286938845 H 0.0 **** 0.06
24675 H 4.7954340488357 43.325731214833226 79.65352268178574 H 0.0 **** 0.06
24676 C 72.40760652280736 47.00111640567525 50.47810081376832 C 0.0 **** -0.24
24677 H 72.05171947668245 46.17047848940183 51.08830133971196 H 0.0 **** 0.06
24678 H 71.71563759840845 47.83904828723195 50.566371852293344 H 0.0 **** 0.06
24679 H 72.46703103436556 46.68656186279566 49.436161882355634 H 0.0 **** 0.06
24680 H 73.39605416959495 47.30681001847549 50.82230610683149 H 0.0 **** 0.06
24681 C 81.40379958880808 32.05017085437083 45.955491488366555 C 0.0 **** -0.24
24682 H 81.37375130263942 32.71773876239564 45.095412624830075 H 0.0 **** 0.06
24683 H 82.22858928024115 32.33587909137992 46.60821220092125 H 0.0 **** 0.06
24684 H 81.54733105751302 31.024963143434263 45.614944269664086 H 0.0 **** 0.06
24685 H 80.46429429895261 32.12195992505286 46.50407580084121 H 0.0 **** 0.06
24686 C 117.61810201089831 59.189022140778 57.76503843639569 C 0.0 **** -0.24
24687 H 117.58796154048571 60.2254576898514 58.100209192091235 H 0.0 **** 0.06
24688 H 116.66500664043615 58.92863650801298 57.30375418851427 H 0.0 **** 0.06
24689 H 117.79887349675148 58.53622315886387 58.61845842244856 H 0.0 **** 0.06
24690 H 118.42000822258142 59.06553774426151 57.0369356825151 H 0.0 **** 0.06
24691 C 19.058702742239788 50.80808501537962 65.46473128738478 C 0.0 **** -0.24
24692 H 19.566708280390657 50.71367208133182 64.50481714600247 H 0.0 **** 0.06
24693 H 18.566409881463358 49.86670128731191 65.70994959674053 H 0.0 **** 0.06
24694 H 18.31446784870029 51.602406215516055 65.40393779786177 H 0.0 **** 0.06
24695 H 19.786442786220974 51.051076382541055 66.23846260168054 H 0.0 **** 0.06
24696 C 81.66160257272631 21.735878428094765 12.722087851579765 C 0.0 **** -0.24
24697 H 82.31198931364469 22.609146161402066 12.760246220506708 H 0.0 **** 0.06
24698 H 82.03523470765552 20.975415925644228 13.408303138442225 H 0.0 **** 0.06
24699 H 81.64915987375909 21.33648407193448 11.707883282856407 H 0.0 **** 0.06
24700 H 80.65069584433124 22.022155312310986 13.011244670464439 H 0.0 **** 0.06
24701 C 64.58894261609527 26.066540468412157 45.19372432021078 C 0.0 **** -0.24
24702 H 64.55308767672946 26.742408266711543 44.338478861165015 H 0.0 **** 0.06
24703 H 65.28588672297732 26.45671580894399 45.935625055663024 H 0.0 **** 0.06
24704 H 64.92088396157541 25.081972132634263 44.864250944719515 H 0.0 **** 0.06
24705 H 63.595109037496655 25.987393028544474 45.634557714828304 H 0.0 **** 0.06
24706 C 114.80636206810038 31.27258682529208 114.04838834712952 C 0.0 **** -0.24
24707 H 115.48836311169102 30.851003903692515 114.7874181434565 H 0.0 **** 0.06
24708 H 113.77748754296762 31.122808499287828 114.37574631378048 H 0.0 **** 0.06
24709 H 114.95875711642856 30.7759700224278 113.08963283819125 H 0.0 **** 0.06
24710 H 115.00266991956636 32.33893822146604 113.9406690527815 H 0.0 **** 0.06
24711 C 66.41739073910594 62.58665086080668 82.13623236964582 C 0.0 **** -0.24
24712 H 67.3049812062381 62.38300920911674 82.73537911211326 H 0.0 **** 0.06
24713 H 65.52661540355038 62.34041359793158 82.7130182958181 H 0.0 **** 0.06
24714 H 66.44433738978864 61.98127855748026 81.23077847248149 H 0.0 **** 0.06
24715 H 66.39609736261158 63.64293697123184 81.86666816850101 H 0.0 **** 0.06
24716 C 38.03566679093677 29.264237231835587 106.15221785027336 C 0.0 **** -0.24
24717 H 39.10522208454796 29.147460150997496 105.9771345428162 H 0.0 **** 0.06
24718 H 37.70726382206156 30.230074602437035 105.76672945558724 H 0.0 **** 0.06
24719 H 37.8354739928329 29.212572603366652 107.22201789103573 H 0.0 **** 0.06
24720 H 37.49514485536409 28.46691749041856 105.64209351567479 H 0.0 **** 0.06
24721 C 30.41026771091842 65.39754006942314 84.8841979814868 C 0.0 **** -0.24
24722 H 29.713250523984584 64.8602915487266 85.52855248690213 H 0.0 **** 0.06
24723 H 30.006796984551386 65.44274037484081 83.87205424527875 H 0.0 **** 0.06
24724 H 31.36777291356995 64.87666520896258 84.87079097550037 H 0.0 **** 0.06
24725 H 30.550945613752873 66.40876653187809 85.26449427864299 H 0.0 **** 0.06
24726 C 84.19181876986244 79.92492620952746 66.25420427586502 C 0.0 **** -0.24
24727 H 84.23074798555805 80.45609605028949 67.20529296411664 H 0.0 **** 0.06
24728 H 84.65220903419836 80.5356089418591 65.47718303645775 H 0.0 **** 0.06
24729 H 83.15277402159109 79.72474799699381 65.99181089008437 H 0.0 **** 0.06
24730 H 84.73126293542555 78.98130803298639 66.34290809499245 H 0.0 **** 0.06
24731 C 112.18161186304336 3.5287756194011966 91.60893050520085 C 0.0 **** -0.24
24732 H 113.21406138206677 3.522166933545286 91.95918315479366 H 0.0 **** 0.06
24733 H 111.5309288297681 3.894734190914088 92.40376164453633 H 0.0 **** 0.06
24734 H 111.8856930242993 2.5166955390146413 91.33325405088664 H 0.0 **** 0.06
24735 H 112.09774733918053 4.1821096322625095 90.74036157327092 H 0.0 **** 0.06
24736 C 113.27571955418122 32.25375705553236 111.12199818145099 C 0.0 **** -0.24
24737 H 112.40039724001127 32.175490475917 110.4769657990101 H 0.0 **** 0.06
24738 H 113.81989780743986 33.16769481850261 110.88651083370692 H 0.0 **** 0.06
24739 H 113.92402096003703 31.392290190887906 110.96032343321956 H 0.0 **** 0.06
24740 H 112.95736019599201 32.27743283685268 112.16394458804521 H 0.0 **** 0.06
24741 C 91.2595081289447 64.95874335426447 38.98351466685256 C 0.0 **** -0.24
24742 H 92.16775947189859 65.3296802400825 38.50855688576621 H 0.0 **** 0.06
24743 H 90.42260597490701 65.05775723161298 38.291915339027526 H 0.0 **** 0.06
24744 H 91.0572395767768 65.5381888437771 39.88430261409417 H 0.0 **** 0.06
24745 H 91.39057889577714 63.90966523331974 39.247914162040445 H 0.0 **** 0.06
24746 C 58.48609134473253 113.61693818242841 75.20344793962855 C 0.0 **** -0.24
24747 H 58.52546127384349 114.49027811338881 75.8541997527559 H 0.0 **** 0.06
24748 H 59.187457596581936 112.8641337911764 75.56468132402532 H 0.0 **** 0.06
24749 H 58.75554919695804 113.90762472872396 74.18798874481385 H 0.0 **** 0.06
24750 H 57.47677197677277 113.2064296935645 75.20777390932483 H 0.0 **** 0.06
24751 C 57.1773388142611 80.12248869059863 56.89999440863996 C 0.0 **** -0.24
24752 H 57.0745550658276 79.23195249395843 57.521590309450026 H 0.0 **** 0.06
24753 H 57.72200228369035 79.8693706296722 55.99010674965066 H 0.0 **** 0.06
24754 H 57.72327062016755 80.8885810003635 57.4510158532707 H 0.0 **** 0.06
24755 H 56.18737404929774 80.4980974187147 56.63886132572521 H 0.0 **** 0.06
24756 C 84.61741742551567 61.60204048743043 15.290877476229184 C 0.0 **** -0.24
24757 H 83.83424529005163 61.13999454304357 14.68914118076367 H 0.0 **** 0.06
24758 H 84.20096910798432 61.92005783335773 16.2455518765982 H 0.0 **** 0.06
24759 H 85.01911695134325 62.46707853474797 14.762160821662746 H 0.0 **** 0.06
24760 H 85.41482049390498 60.87945225911051 15.464158065780168 H 0.0 **** 0.06
24761 C 74.44573965615757 95.45246889511986 9.322605138868369 C 0.0 **** -0.24
24762 H 73.43769495391703 95.6070477096857 9.704933175467659 H 0.0 **** 0.06
24763 H 75.0498498341623 94.95556428197179 10.08237637207715 H 0.0 **** 0.06
24764 H 74.89285638190353 96.4157941207896 9.075465979403376 H 0.0 **** 0.06
24765 H 74.40396715057707 94.83158160467062 8.427662345484464 H 0.0 **** 0.06
24766 C 116.37486530726187 79.54199223105599 43.42437433343747 C 0.0 **** -0.24
24767 H 116.97082918106673 80.3076630144578 43.921239398952416 H 0.0 **** 0.06
24768 H 116.7189559278093 79.42340762420372 42.39782000070426 H 0.0 **** 0.06
24769 H 115.32677102919578 79.84181979207256 43.42501033812938 H 0.0 **** 0.06
24770 H 116.48301630480279 78.59645223365004 43.95609236546251 H 0.0 **** 0.06
24771 C 68.17171672340754 46.299313663582595 62.88490214210958 C 0.0 **** -0.24
24772 H 67.66107180752951 46.342583099189284 61.92304452407342 H 0.0 **** 0.06
24773 H 68.68472493295064 47.244500888922516 63.06626458045881 H 0.0 **** 0.06
24774 H 68.89918518194978 45.487122092342645 62.87314989027976 H 0.0 **** 0.06
24775 H 67.44284534300849 46.12324830943707 63.675140075060455 H 0.0 **** 0.06
24776 C 87.17781654268492 9.911041726921951 27.441882332631906 C 0.0 **** -0.24
24777 H 86.57697591132359 10.299313266784964 26.619021857928516 H 0.0 **** 0.06
24778 H 87.5687013648639 10.741034033494941 28.029437713513204 H 0.0 **** 0.06
24779 H 88.00592092823439 9.32551686249343 27.04167567653036 H 0.0 **** 0.06
24780 H 86.5583968398681 9.276603010834663 28.076171179061333 H 0.0 **** 0.06
24781 C 8.807954265719388 33.640593631514875 41.58220815321462 C 0.0 **** -0.24
24782 H 8.832893917117875 34.34683937877898 42.41191985695568 H 0.0 **** 0.06
24783 H 9.058574265942262 32.64408866522639 41.946968461572794 H 0.0 **** 0.06
24784 H 9.531608370048023 33.94337104606646 40.8251076513078 H 0.0 **** 0.06
24785 H 7.809252804992891 33.62695184073876 41.146051247070886 H 0.0 **** 0.06
24786 C 83.74043801751 20.696444603807436 113.80088566914665 C 0.0 **** -0.24
24787 H 84.34334942584456 20.744513105701515 114.70801402650326 H 0.0 **** 0.06
24788 H 83.0734957620258 21.55819501680105 113.76187448786413 H 0.0 **** 0.06
24789 H 83.15019960013183 19.779549644922895 113.80587293389792 H 0.0 **** 0.06
24790 H 84.39448458966308 20.70210413149954 112.92875285856947 H 0.0 **** 0.06
24791 C 66.87370849746955 112.05666042294627 99.88668350041425 C 0.0 **** -0.24
24792 H 66.50283364620114 112.27412788292074 98.88542415622456 H 0.0 **** 0.06
24793 H 66.81944480142403 112.95723934245487 100.49841598783911 H 0.0 **** 0.06
24794 H 67.91003770116669 111.72187273345267 99.82512331753145 H 0.0 **** 0.06
24795 H 66.26528306914713 111.27281473312908 100.33767351717731 H 0.0 **** 0.06
24796 C 97.21826336322579 72.30862974196219 108.86077145982767 C 0.0 **** -0.24
24797 H 96.15592329929427 72.54282040886216 108.78261154448154 H 0.0 **** 0.06
24798 H 97.56514037927684 71.87737647499654 107.92185479103651 H 0.0 **** 0.06
24799 H 97.37321949436762 71.59257518387602 109.66835618321505 H 0.0 **** 0.06
24800 H 97.77632262083739 73.22046802444544 109.07143548475022 H 0.0 **** 0.06
24801 C 103.73376744172202 16.249606499327744 78.75495105019309 C 0.0 **** -0.24
24802 H 104.3044776895118 16.497724691642755 77.86010707495478 H 0.0 **** 0.06
24803 H 102.75529480217764 16.72810196532812 78.7051314195894 H 0.0 **** 0.06
24804 H 104.26746556122325 16.60468343959834 79.63689055476948 H 0.0 **** 0.06
24805 H 103.60672735493378 15.168783761800768 78.81750984747896 H 0.0 **** 0.06
24806 C 66.57608067048139 19.497024648297696 55.98739544253283 C 0.0 **** -0.24
24807 H 65.83108586537529 20.284731654935882 55.872204208982794 H 0.0 **** 0.06
24808 H 67.31039514254832 19.79878447589587 56.734822281672535 H 0.0 **** 0.06
24809 H 67.07717763255687 19.327977111892096 55.034238404576115 H 0.0 **** 0.06
24810 H 66.0867976611566 18.577787176217385 56.309839532785816 H 0.0 **** 0.06
24811 C 60.39281159632509 97.78247135473049 49.67374235712532 C 0.0 **** -0.24
24812 H 59.480354544734695 98.31890088681206 49.93358277092426 H 0.0 **** 0.06
24813 H 61.22675979524573 98.48308335009895 49.63212745457707 H 0.0 **** 0.06
24814 H 60.26887653436876 97.30675526301053 48.70027795625583 H 0.0 **** 0.06
24815 H 60.59314211928978 97.0207162955484 50.427819631177385 H 0.0 **** 0.06
24816 C 76.21670227962522 61.35672253062296 34.703796893220016 C 0.0 **** -0.24
24817 H 75.44970817004832 61.1217831349274 35.44180237218026 H 0.0 **** 0.06
24818 H 77.1808394666877 61.45938918195145 35.2019230017024 H 0.0 **** 0.06
24819 H 75.9642274113557 62.2925149092967 34.20412530720992 H 0.0 **** 0.06
24820 H 76.27006371586015 60.55419453135909 33.967703846396574 H 0.0 **** 0.06
24821 C 34.67456070262381 13.793728124666714 99.43692511406607 C 0.0 **** -0.24
24822 H 33.84088354808645 13.525220678978297 100.08630925652409 H 0.0 **** 0.06
24823 H 34.699804034014875 13.119616929653073 98.58118777345769 H 0.0 **** 0.06
24824 H 35.60861038377837 13.711041439006209 99.99322872977484 H 0.0 **** 0.06
24825 H 34.54765075730748 14.819318567314788 99.0896662710968 H 0.0 **** 0.06
24826 C 60.680932812909646 3.1072093778745966 13.201094210875372 C 0.0 **** -0.24
24827 H 61.15589165871032 2.513390832683797 13.98259740936226 H 0.0 **** 0.06
24828 H 61.44744522472351 3.6076449085588393 12.609031211206041 H 0.0 **** 0.06
24829 H 60.03027712749952 3.8525294739336147 13.658057751418411 H 0.0 **** 0.06
24830 H 60.09111579825145 2.4553857921774096 12.557688902287957 H 0.0 **** 0.06
24831 C 49.607175163759315 0.9345168940145072 50.451377546145636 C 0.0 **** -0.24
24832 H 48.550709512234825 0.915409154186932 50.185349838835066 H 0.0 **** 0.06
24833 H 50.20241662814967 0.6055981803090731 49.59903741470566 H 0.0 **** 0.06
24834 H 49.780927399392176 0.26606942287961033 51.29527610110705 H 0.0 **** 0.06
24835 H 49.89511914621617 1.9496697195640422 50.72602571820471 H 0.0 **** 0.06
24836 C 74.94864131032952 44.80424808581947 25.725890538990804 C 0.0 **** -0.24
24837 H 74.0081897449997 45.24976259712241 26.05192321942573 H 0.0 **** 0.06
24838 H 75.75062290904077 45.11831730097535 26.39486414466259 H 0.0 **** 0.06
24839 H 75.17201729892409 45.131030331658735 24.710896928137615 H 0.0 **** 0.06
24840 H 74.8617096680621 43.717878346321356 25.74682503903052 H 0.0 **** 0.06
24841 C 28.533208359933553 6.033124942461654 58.50131174636416 C 0.0 **** -0.24
24842 H 28.431961132284613 6.591936340610118 59.43171617110605 H 0.0 **** 0.06
24843 H 28.753446522201415 4.989111804007223 58.72658125819631 H 0.0 **** 0.06
24844 H 29.34571733167172 6.456882728286928 57.91039286252438 H 0.0 **** 0.06
24845 H 27.603203575463482 6.0953522861347835 57.936945393503045 H 0.0 **** 0.06
24846 C 115.16579990654398 31.56863523658086 19.42147047449427 C 0.0 **** -0.24
24847 H 114.57791043197955 31.691852702096753 18.51149957687801 H 0.0 **** 0.06
24848 H 115.54734835670773 32.53897136119315 19.740625933067406 H 0.0 **** 0.06
24849 H 116.00022773296318 30.8955633879242 19.226493522133183 H 0.0 **** 0.06
24850 H 114.5352494609196 31.149798534961064 20.206156118567804 H 0.0 **** 0.06
24851 C 13.946565421474133 112.35672750330667 61.31633538277114 C 0.0 **** -0.24
24852 H 14.663775210110884 112.93625472178226 61.89717775646224 H 0.0 **** 0.06
24853 H 13.070165720123669 112.14292760230182 61.92989618693454 H 0.0 **** 0.06
24854 H 14.40610169031413 111.42059886740853 60.99978974466353 H 0.0 **** 0.06
24855 H 13.644304831522334 112.92797149868414 60.43768670636692 H 0.0 **** 0.06
24856 C 50.413272446588365 74.58064204335784 93.73710244025713 C 0.0 **** -0.24
24857 H 50.87969665818676 75.45054533055082 94.19882341436136 H 0.0 **** 0.06
24858 H 50.23893034362132 74.77980482747793 92.67917302178301 H 0.0 **** 0.06
24859 H 49.462395714485694 74.37432395265148 94.22915619628816 H 0.0 **** 0.06
24860 H 51.07073353183873 73.71792605373744 93.84236203948163 H 0.0 **** 0.06
24861 C 65.42078490643121 38.76852089748421 74.28009973407259 C 0.0 **** -0.24
24862 H 66.36403422985416 38.28475831018267 74.02505251738626 H 0.0 **** 0.06
24863 H 64.60370520671302 38.26688460217995 73.75969078259942 H 0.0 **** 0.06
24864 H 65.45620272562297 39.81454673782224 73.97691984662626 H 0.0 **** 0.06
24865 H 65.26018230587482 38.70590276322972 75.35572478960549 H 0.0 **** 0.06
24866 C 84.8768883599189 92.25070436000146 17.949417457828503 C 0.0 **** -0.24
24867 H 83.81875131970025 92.3809292326201 18.178164271561275 H 0.0 **** 0.06
24868 H 85.14293641361894 91.19919021171702 18.0521400680703 H 0.0 **** 0.06
24869 H 85.47236679064599 92.84573268641338 18.64190016764481 H 0.0 **** 0.06
24870 H 85.07099819897707 92.57783218668143 16.928626958873956 H 0.0 **** 0.06
24871 C 30.789367569436706 68.55343339388793 43.61144336111505 C 0.0 **** -0.24
24872 H 31.564179875462912 68.48435214460449 42.84902081381037 H 0.0 **** 0.06
24873 H 29.824783441101772 68.29722341447831 43.17328189309566 H 0.0 **** 0.06
24874 H 30.7524520040742 69.57176698419573 44.0001290793775 H 0.0 **** 0.06
24875 H 31.01567027897022 67.8623257859052 44.42301152888902 H 0.0 **** 0.06
24876 C 74.5165907841778 102.95224635084281 1.431512419580315 C 0.0 **** -0.24
24877 H 73.44980632087422 102.86626873580809 1.6385929342737882 H 0.0 **** 0.06
24878 H 75.08061423986831 102.43454379928704 2.2068408210777193 H 0.0 **** 0.06
24879 H 74.79939876964184 104.00504336127085 1.4164892434554872 H 0.0 **** 0.06
24880 H 74.73488340508621 102.50420018429003 0.4621025287443672 H 0.0 **** 0.06
24881 C 88.19399051881146 108.27109871094598 6.596538536413796 C 0.0 **** -0.24
24882 H 87.30355282530957 108.39200100283031 7.2144600448081455 H 0.0 **** 0.06
24883 H 88.83812107235872 109.14339396243412 6.7145575553821715 H 0.0 **** 0.06
24884 H 87.8997904956621 108.17388778140793 5.551567750754963 H 0.0 **** 0.06
24885 H 88.73264571257255 107.37638803151262 6.90855928309378 H 0.0 **** 0.06
24886 C 59.36669117392938 66.17171113288654 3.3633782181036906 C 0.0 **** -0.24
24887 H 59.874883187910086 65.79593934869484 2.4750381693806247 H 0.0 **** 0.06
24888 H 58.311283794823396 65.9028904685643 3.319148319108251 H 0.0 **** 0.06
24889 H 59.46496871098992 67.25651725705737 3.406700057587784 H 0.0 **** 0.06
24890 H 59.81698775620572 65.73112185365028 4.252739578532754 H 0.0 **** 0.06
24891 C 117.9915499724824 74.30960835315986 80.19469965527983 C 0.0 **** -0.24
24892 H 117.699295693576 73.2749854094173 80.01389479906632 H 0.0 **** 0.06
24893 H 117.10229917325748 74.93938340690201 80.21750218448949 H 0.0 **** 0.06
24894 H 118.65406689702047 74.64434875458733 79.3961185427782 H 0.0 **** 0.06
24895 H 118.5109819587575 74.37825712974453 81.1504612994577 H 0.0 **** 0.06
24896 C 118.69127930728459 58.367404580952716 13.22868427954262 C 0.0 **** -0.24
24897 H 118.31694089597275 58.45233095007318 14.247677259652562 H 0.0 **** 0.06
24898 H 119.64504207959021 57.8389581172408 13.235281911161948 H 0.0 **** 0.06
24899 H 118.83057118372918 59.36264168481028 12.807766960989241 H 0.0 **** 0.06
24900 H 117.97366476433385 57.813766334922484 12.622964339386115 H 0.0 **** 0.06
24901 C 7.722697570340188 102.4974761606189 101.65035855744745 C 0.0 **** -0.24
24902 H 8.488405288644941 103.23671052980791 101.41862225988086 H 0.0 **** 0.06
24903 H 7.102599420397553 102.86156314166402 102.46935337315017 H 0.0 **** 0.06
24904 H 8.197636035756346 101.5605775776051 101.94173988319312 H 0.0 **** 0.06
24905 H 7.101352042447047 102.329782322337 100.77006080093656 H 0.0 **** 0.06
24906 C 111.49573199970102 112.05910621037137 75.16473402144803 C 0.0 **** -0.24
24907 H 112.1928003020905 112.87487802902223 74.97464021033866 H 0.0 **** 0.06
24908 H 112.00465632714644 111.2693856196269 75.71920413214639 H 0.0 **** 0.06
24909 H 111.1328513197891 111.66266903435216 74.2171192940107 H 0.0 **** 0.06
24910 H 110.65397723606648 112.42967219903882 75.75082310121482 H 0.0 **** 0.06
24911 C 75.83946343989061 17.70345844288252 25.616289288337924 C 0.0 **** -0.24
24912 H 75.40845827210953 18.68075811247536 25.398058919396078 H 0.0 **** 0.06
24913 H 75.7993872390594 17.520676994101876 26.690090204268273 H 0.0 **** 0.06
24914 H 76.87670073189983 17.680356342386006 25.281834999761855 H 0.0 **** 0.06
24915 H 75.27209402294324 16.931672501429063 25.094547903661947 H 0.0 **** 0.06
24916 C 47.57531964599872 49.47519565089209 38.17932548707785 C 0.0 **** -0.24
24917 H 48.03192748906821 48.55366104169855 38.54052600703689 H 0.0 **** 0.06
24918 H 47.29182860320495 49.35413822174405 37.13391576592608 H 0.0 **** 0.06
24919 H 48.28951844952954 50.293330379811835 38.26952067431963 H 0.0 **** 0.06
24920 H 46.689747429644626 49.69831073930385 38.77373866984235 H 0.0 **** 0.06
24921 C 25.303471604122805 60.14726478885797 38.823398819629176 C 0.0 **** -0.24
24922 H 26.368659789070506 59.98055074777781 38.98373948791391 H 0.0 **** 0.06
24923 H 24.956818339872683 59.51589342764717 38.00388956280909 H 0.0 **** 0.06
24924 H 25.133671254343888 61.194423761976196 38.572503406469366 H 0.0 **** 0.06
24925 H 24.755987722857995 59.897900934128614 39.73163202820743 H 0.0 **** 0.06
24926 C 30.230786401471875 37.78246391784006 33.72382979157965 C 0.0 **** -0.24
24927 H 29.473896366299414 38.00548903099258 34.475673412575674 H 0.0 **** 0.06
24928 H 31.206950368355677 38.108874343685216 34.08328736197856 H 0.0 **** 0.06
24929 H 29.990092281380072 38.30787718592018 32.79942412745419 H 0.0 **** 0.06
24930 H 30.2518573827206 36.70911402308451 33.53772892895924 H 0.0 **** 0.06
24931 C 79.87235375380388 42.39835577219476 116.50688542189367 C 0.0 **** -0.24
24932 H 80.8967098992195 42.74316398378227 116.37448748111106 H 0.0 **** 0.06
24933 H 79.63959073803335 42.34997078366388 117.57171638229684 H 0.0 **** 0.06
24934 H 79.76178291851542 41.40794817445531 116.06476837956836 H 0.0 **** 0.06
24935 H 79.18872615244157 43.092977018506446 116.01791380205123 H 0.0 **** 0.06
24936 C 41.889796172081645 40.1751047319887 69.50535748268462 C 0.0 **** -0.24
24937 H 41.06371702809213 40.761040878837264 69.90648409949262 H 0.0 **** 0.06
24938 H 42.413571403694746 39.67817114202106 70.32208699512418 H 0.0 **** 0.06
24939 H 42.58021945512925 40.834304969840986 68.97843874990045 H 0.0 **** 0.06
24940 H 41.50153560407239 39.42721787899305 68.81272290626487 H 0.0 **** 0.06
24941 C 55.22467726901244 38.5726264872402 21.59887946680081 C 0.0 **** -0.24
24942 H 54.2530864436078 39.019966393103005 21.388209421110474 H 0.0 **** 0.06
24943 H 55.3241819410782 38.409794567815766 22.67259228879385 H 0.0 **** 0.06
24944 H 56.01393615073254 39.24173944740187 21.257750796864713 H 0.0 **** 0.06
24945 H 55.3061612476773 37.619388850210385 21.077186165619622 H 0.0 **** 0.06
24946 C 34.2991778992879 45.056649770692175 93.30012592120764 C 0.0 **** -0.24
24947 H 35.32545345947463 44.92636211867379 93.642218191247 H 0.0 **** 0.06
24948 H 34.228795894772645 44.77757830873889 92.24768057785235 H 0.0 **** 0.06
24949 H 34.00586943503495 46.09908714600181 93.41987971340268 H 0.0 **** 0.06
24950 H 33.63638513232321 44.422915279715 93.88884731315119 H 0.0 **** 0.06
24951 C 104.33309002434444 118.21960662526665 53.204152536043566 C 0.0 **** -0.24
24952 H 103.89259178037119 117.23153855935365 53.06377278002958 H 0.0 **** 0.06
24953 H 103.7516424009178 118.77345893759687 53.94059044396532 H 0.0 **** 0.06
24954 H 104.3272242249756 118.75701221112823 52.255609218375895 H 0.0 **** 0.06
24955 H 105.35943829403308 118.11205281452285 53.5557346795295 H 0.0 **** 0.06
24956 C 92.9813807554672 1.0798911598755119 102.85496638352535 C 0.0 **** -0.24
24957 H 92.42126004869033 0.42432292735688826 103.52083242421048 H 0.0 **** 0.06
24958 H 92.30231024725788 1.5229974089994336 102.12587193005837 H 0.0 **** 0.06
24959 H 93.7455762725379 0.5027372979285776 102.33502969363201 H 0.0 **** 0.06
24960 H 93.45587101302826 1.8705223658991716 103.43728668453718 H 0.0 **** 0.06
24961 C 16.26424101836085 37.00291855116748 33.07413504455572 C 0.0 **** -0.24
24962 H 17.02516439374497 36.927359516757434 32.297319737391064 H 0.0 **** 0.06
24963 H 15.516513468661877 36.2229744709916 32.92611347952606 H 0.0 **** 0.06
24964 H 15.7848521971084 37.980563782968346 33.01995244943479 H 0.0 **** 0.06
24965 H 16.72944703088383 36.87956751028722 34.05240315062849 H 0.0 **** 0.06
24966 C 85.19723549005235 17.849743920679337 95.90679704520676 C 0.0 **** -0.24
24967 H 84.3248864462987 18.02263190002387 95.27624452260125 H 0.0 **** 0.06
24968 H 85.06428144343303 18.36284531063663 96.8582031826958 H 0.0 **** 0.06
24969 H 86.086788405313 18.23327435303842 95.40718961724968 H 0.0 **** 0.06
24970 H 85.31221480830976 16.780522860510928 96.08190156341041 H 0.0 **** 0.06
24971 C 69.23755432550792 44.6425058915095 87.90022137554575 C 0.0 **** -0.24
24972 H 68.93635167978539 43.88565985981447 87.17619540967814 H 0.0 **** 0.06
24973 H 68.46895709387633 45.4146349016456 87.96066805827667 H 0.0 **** 0.06
24974 H 70.17984275721534 45.09227826749631 87.58582521488913 H 0.0 **** 0.06
24975 H 69.36480424825317 44.179116197203825 88.87859350284432 H 0.0 **** 0.06
24976 C 18.66670509449358 7.547950432192209 65.7379792016417 C 0.0 **** -0.24
24977 H 19.412064018971023 7.837880605882191 66.47890778532894 H 0.0 **** 0.06
24978 H 19.159964855139776 7.048554053069722 64.90271830430694 H 0.0 **** 0.06
24979 H 18.150475015746053 8.437673455951938 65.3752532612464 H 0.0 **** 0.06
24980 H 17.945688482947503 6.870118415541413 66.19253969932504 H 0.0 **** 0.06
24981 C 64.09191936897679 36.69570971968868 105.06308081847487 C 0.0 **** -0.24
24982 H 63.00250397755036 36.657128786317124 105.03090538135032 H 0.0 **** 0.06
24983 H 64.41138052663962 37.14352873636548 106.00504120551037 H 0.0 **** 0.06
24984 H 64.45782597910431 37.29785948470433 104.23174300949623 H 0.0 **** 0.06
24985 H 64.49356521505297 35.686169623016376 104.98553803586842 H 0.0 **** 0.06
24986 C 71.25323495253122 91.99998102570686 58.487457192886545 C 0.0 **** -0.24
24987 H 71.3750767551071 90.91877354441425 58.41878730009844 H 0.0 **** 0.06
24988 H 72.22240794242893 92.4828913014266 58.36590102480539 H 0.0 **** 0.06
24989 H 70.83787233781382 92.25669147990021 59.46229987138681 H 0.0 **** 0.06
24990 H 70.57617215547384 92.33992646492794 57.703403194468684 H 0.0 **** 0.06
24991 C 2.586734973285896 50.036545815432106 80.58973205100602 C 0.0 **** -0.24
24992 H 1.5227912341594116 50.185120615199395 80.77304542161025 H 0.0 **** 0.06
24993 H 2.9859169632704106 50.89768703735871 80.05302900998379 H 0.0 **** 0.06
24994 H 2.729474583640595 49.13654108802476 79.99158034167664 H 0.0 **** 0.06
24995 H 3.107526816312463 49.92744132815375 81.54092951984569 H 0.0 **** 0.06
24996 C 2.152946777721368 3.951051213036976 84.14567250262095 C 0.0 **** -0.24
24997 H 2.702712908390282 3.1049833692570985 83.73477482105415 H 0.0 **** 0.06
24998 H 2.3701595129472537 4.043401492287501 85.21008297635461 H 0.0 **** 0.06
24999 H 1.083198281185986 3.79163892010547 84.00528544815867 H 0.0 **** 0.06
25000 H 2.453997771202026 4.86427351742438 83.63235204575344 H 0.0 **** 0.06
25001 C 66.03986292905182 14.116858709527534 55.65262372353336 C 0.0 **** -0.24
25002 H 66.73837947253492 14.202935754156826 54.819652527795206 H 0.0 **** 0.06
25003 H 66.11548529797281 13.119741606877582 56.08743674551173 H 0.0 **** 0.06
25004 H 65.02456851474324 14.282029412423398 55.29433003770007 H 0.0 **** 0.06
25005 H 66.28447745873783 14.862833626579885 56.40891846474451 H 0.0 **** 0.06
25006 C 28.736569583566165 91.21901440227174 101.83260346831145 C 0.0 **** -0.24
25007 H 29.22045465861089 90.2524562021481 101.69236065769238 H 0.0 **** 0.06
25008 H 28.68791263571228 91.44981126734078 102.8964812059859 H 0.0 **** 0.06
25009 H 27.7276006791761 91.1827049935626 101.42089120296922 H 0.0 **** 0.06
25010 H 29.310761412075585 91.98936258537202 101.31899863870345 H 0.0 **** 0.06
25011 C 84.95371912748709 88.40864378589725 73.7184585183 C 0.0 **** -0.24
25012 H 85.81208964099613 88.96977906861846 74.08720612657493 H 0.0 **** 0.06
25013 H 84.97334042293548 87.40087442766065 74.1329491407374 H 0.0 **** 0.06
25014 H 84.9960416926316 88.35434106184249 72.63047202735379 H 0.0 **** 0.06
25015 H 84.03513003081167 88.9097299342719 74.02179206812966 H 0.0 **** 0.06
25016 C 69.12528275906203 112.39045112530818 106.85663027241631 C 0.0 **** -0.24
25017 H 68.60075251478276 113.32514333531947 107.05317549404728 H 0.0 **** 0.06
25018 H 69.20560735841394 111.8179526639592 107.78194598889723 H 0.0 **** 0.06
25019 H 70.12312431748677 112.60684293902676 106.47494272731299 H 0.0 **** 0.06
25020 H 68.57093284534136 111.81049668179702 106.11807448904037 H 0.0 **** 0.06
25021 C 87.82141078212948 52.096785444242954 62.92071789183169 C 0.0 **** -0.24
25022 H 87.9344799508487 51.93399687267855 63.991778915720964 H 0.0 **** 0.06
25023 H 88.28028210609097 53.04733177423327 62.64691247095636 H 0.0 **** 0.06
25024 H 86.76089056511665 52.11849143123848 62.6670539968022 H 0.0 **** 0.06
25025 H 88.30771427165854 51.28665624412696 62.37651277002153 H 0.0 **** 0.06
25026 C 43.240701087458866 59.429350969577804 51.78045040813504 C 0.0 **** -0.24
25027 H 43.409721219669905 60.394955177763556 51.30517553644222 H 0.0 **** 0.06
25028 H 44.19524718823996 59.009440275511245 52.09754079816025 H 0.0 **** 0.06
25029 H 42.763736773358545 58.753193830659576 51.070613693047335 H 0.0 **** 0.06
25030 H 42.594099168567055 59.55981459437688 52.64847160489052 H 0.0 **** 0.06
25031 C 92.45229609623081 115.76929810080637 83.03477933102567 C 0.0 **** -0.24
25032 H 92.32398055725946 114.87696335765449 82.42206700032463 H 0.0 **** 0.06
25033 H 92.99616778339771 116.52409223496485 82.46724700335955 H 0.0 **** 0.06
25034 H 93.01348972533222 115.51570307455688 83.9340823034558 H 0.0 **** 0.06
25035 H 91.47369401522988 116.15968121870691 83.3157750805403 H 0.0 **** 0.06
25036 C 47.64780141829786 77.58670817780245 108.09679748005436 C 0.0 **** -0.24
25037 H 47.72546017502424 77.3736313631114 109.16249438891595 H 0.0 **** 0.06
25038 H 48.56265059419465 78.07253004491491 107.75598121276812 H 0.0 **** 0.06
25039 H 46.79923923112233 78.24722161396147 107.91922842149492 H 0.0 **** 0.06
25040 H 47.50475031917978 76.6554842513691 107.54973177832505 H 0.0 **** 0.06
25041 C 3.641222030717188 71.5292450600241 28.92709909438662 C 0.0 **** -0.24
25042 H 4.6691413330083265 71.22871623355522 28.72456787950739 H 0.0 **** 0.06
25043 H 3.5442790126202652 72.60730801904802 28.790757611125002 H 0.0 **** 0.06
25044 H 3.3808667857822456 71.2674823918008 29.953120085945898 H 0.0 **** 0.06
25045 H 2.9703649375820476 71.01435141098023 28.239533934747442 H 0.0 **** 0.06
25046 C 115.74977583895397 64.77275403770719 7.368367366157543 C 0.0 **** -0.24
25047 H 115.62401230405267 63.7141916805497 7.141372153604436 H 0.0 **** 0.06
25048 H 116.68457931418236 64.91930340697496 7.909221597859187 H 0.0 **** 0.06
25049 H 114.91695699481745 65.11415100916113 7.982113547461594 H 0.0 **** 0.06
25050 H 115.77436190582104 65.3420687008306 6.439475619324838 H 0.0 **** 0.06
25051 C 22.983240122575666 63.908942219154795 68.37973391422577 C 0.0 **** -0.24
25052 H 22.394637973550175 63.46519445581566 69.1825607883402 H 0.0 **** 0.06
25053 H 23.727350708288213 63.19084449867421 68.0338817484153 H 0.0 **** 0.06
25054 H 23.485130229054676 64.80384123393509 68.74953078372934 H 0.0 **** 0.06
25055 H 22.325282163013213 64.17715157192202 67.55265853532953 H 0.0 **** 0.06
25056 C 17.200944888755174 73.52984102732515 107.55441463137993 C 0.0 **** -0.24
25057 H 16.613794444787885 74.42219713321848 107.76898966770807 H 0.0 **** 0.06
25058 H 18.18044561179147 73.82289348690165 107.17388568910266 H 0.0 **** 0.06
25059 H 16.68586403257578 72.9261881341771 106.8074785985919 H 0.0 **** 0.06
25060 H 17.324746955274634 72.94927847967645 108.46795919950557 H 0.0 **** 0.06
25061 C 102.80159119754808 76.32756647686944 22.0156483431918 C 0.0 **** -0.24
25062 H 102.84167392125525 77.33914155881286 22.41748001941049 H 0.0 **** 0.06
25063 H 103.31845321228121 76.29767643643027 21.05535727524679 H 0.0 **** 0.06
25064 H 101.76158759830273 76.03114948923115 21.878538671747435 H 0.0 **** 0.06
25065 H 103.28591463853064 75.6414843714964 22.710358143426802 H 0.0 **** 0.06
25066 C 62.119532915274895 28.91984912836506 118.3916950238709 C 0.0 **** -0.24
25067 H 62.821589586875156 28.58581897206308 117.62789148937603 H 0.0 **** 0.06
25068 H 61.65634484443938 29.85412509179183 118.07636863610895 H 0.0 **** 0.06
25069 H 62.65149907293428 29.076395636693235 119.33055860141988 H 0.0 **** 0.06
25070 H 61.34990827060199 28.161084423767548 118.53358795218803 H 0.0 **** 0.06
25071 C 111.24082287846164 22.26324594288647 42.229391469612494 C 0.0 **** -0.24
25072 H 111.45436864899409 23.285327385454536 41.91820946759651 H 0.0 **** 0.06
25073 H 111.54531015280628 21.572897183484372 41.44259945578261 H 0.0 **** 0.06
25074 H 110.17165371322386 22.155841586859708 42.414834789732424 H 0.0 **** 0.06
25075 H 111.79249513865511 22.03920964980921 43.143197856250595 H 0.0 **** 0.06
25076 C 12.45844857876412 92.03959222856486 5.421295210448305 C 0.0 **** -0.24
25077 H 12.007334407132504 92.58987248099459 6.246328029255668 H 0.0 **** 0.06
25078 H 11.874891267606131 92.20095728142138 4.514760175276596 H 0.0 **** 0.06
25079 H 12.471853505008454 90.97586024852819 5.659604200836631 H 0.0 **** 0.06
25080 H 13.47806067276656 92.3894060884993 5.265536097405269 H 0.0 **** 0.06
25081 C 65.08691202726794 13.412662246458453 89.16744164060364 C 0.0 **** -0.24
25082 H 65.23797437874754 13.145724685060117 90.21359463967175 H 0.0 **** 0.06
25083 H 65.68467761969237 12.755284521867935 88.53486794392558 H 0.0 **** 0.06
25084 H 65.39399722446967 14.447092199625004 89.00986630696323 H 0.0 **** 0.06
25085 H 64.0330743612472 13.304176916393885 88.9131807293196 H 0.0 **** 0.06
25086 C 77.27807763908896 76.09569646902355 41.8701402033563 C 0.0 **** -0.24
25087 H 77.83172659272878 76.91533817518842 41.413132735402826 H 0.0 **** 0.06
25088 H 76.78427346876919 76.45155462978056 42.77539933171238 H 0.0 **** 0.06
25089 H 77.96626770290072 75.28977115500714 42.12377252650799 H 0.0 **** 0.06
25090 H 76.52907368513533 75.72796680826559 41.169067082135314 H 0.0 **** 0.06
25091 C 98.42807451124665 3.209427443914132 42.54609664488551 C 0.0 **** -0.24
25092 H 98.66523905506583 2.1467234259938746 42.586054933943544 H 0.0 **** 0.06
25093 H 99.12293307678527 3.710505957065182 41.871423742881476 H 0.0 **** 0.06
25094 H 98.51585308712339 3.6391396247646473 43.544055032184566 H 0.0 **** 0.06
25095 H 97.40965697683438 3.340322621178071 42.18142185806492 H 0.0 **** 0.06
25096 C 71.71402352185166 82.6151176330547 12.82732011371257 C 0.0 **** -0.24
25097 H 71.35133552476375 81.67201072703389 12.417970169736755 H 0.0 **** 0.06
25098 H 71.21152847626004 83.44404221867799 12.328054277240195 H 0.0 **** 0.06
25099 H 72.78910901658159 82.69040409213136 12.666209412160743 H 0.0 **** 0.06
25100 H 71.50346551370703 82.65223974750302 13.895853129738828 H 0.0 **** 0.06
25101 C 92.47203897878455 103.13242606435665 96.42659197762623 C 0.0 **** -0.24
25102 H 92.62704601847966 104.17762297146959 96.6923602099746 H 0.0 **** 0.06
25103 H 93.43684044337166 102.64960140685247 96.2714177219184 H 0.0 **** 0.06
25104 H 91.88501730258642 103.07351824267215 95.50993827960548 H 0.0 **** 0.06
25105 H 91.93853550814049 102.62774253210677 97.23263366568676 H 0.0 **** 0.06
25106 C 13.914741909673332 68.69713908958786 60.18979691854472 C 0.0 **** -0.24
25107 H 13.437330188843479 67.85067519393837 60.683100549204106 H 0.0 **** 0.06
25108 H 13.400318330013228 69.61738857759158 60.46753035267064 H 0.0 **** 0.06
25109 H 13.86338947278201 68.56328265224698 59.10919664121668 H 0.0 **** 0.06
25110 H 14.95775795817929 68.75548692235017 60.49940403416388 H 0.0 **** 0.06
25111 C 62.499344376327365 61.83699009486677 20.87593169426566 C 0.0 **** -0.24
25112 H 63.120638130989256 62.69386336840862 21.133607356234705 H 0.0 **** 0.06
25113 H 61.85386655166504 61.58947809426915 21.71922275419695 H 0.0 **** 0.06
25114 H 63.13642995040194 60.98296529427328 20.643556465825725 H 0.0 **** 0.06
25115 H 61.88654693844695 62.07992465024433 20.007339313941202 H 0.0 **** 0.06
25116 C 96.18475767966493 20.201284289117847 84.08083645449366 C 0.0 **** -0.24
25117 H 96.9200981547329 19.69677732619888 83.4537657241361 H 0.0 **** 0.06
25118 H 95.54507319262495 20.828180234027702 83.45919521425932 H 0.0 **** 0.06
25119 H 96.69951006429054 20.822048708679162 84.81453742789424 H 0.0 **** 0.06
25120 H 95.57672632551996 19.458077913715368 84.59643679719716 H 0.0 **** 0.06
25121 C 65.53806033239894 85.8784394108799 68.79269127137863 C 0.0 **** -0.24
25122 H 64.49941661381052 85.65962031365314 69.04168932467809 H 0.0 **** 0.06
25123 H 65.68525252692422 85.76487659245652 67.71848759645778 H 0.0 **** 0.06
25124 H 66.19244254015123 85.18703887282982 69.32390479818824 H 0.0 **** 0.06
25125 H 65.77370591688003 86.90058898033521 69.08612931789736 H 0.0 **** 0.06
25126 C 48.14425434022264 112.42988216843372 109.2501277764292 C 0.0 **** -0.24
25127 H 49.11422508281894 112.02847214646697 109.54333472158703 H 0.0 **** 0.06
25128 H 48.167158872738746 112.70204969193637 108.19476679202683 H 0.0 **** 0.06
25129 H 47.92163053038585 113.31377628667227 109.84923502333584 H 0.0 **** 0.06
25130 H 47.37363862040281 111.67642690505424 109.41502830628784 H 0.0 **** 0.06
25131 C 114.41350205636513 6.331229374535823 106.16253054865501 C 0.0 **** -0.24
25132 H 114.07258336824526 6.685971581876316 107.13490699492377 H 0.0 **** 0.06
25133 H 113.96817548605293 5.358542068623109 105.95411220357244 H 0.0 **** 0.06
25134 H 115.49968634543137 6.239880481210378 106.17012296089626 H 0.0 **** 0.06
25135 H 114.11356302573125 7.0405233664333196 105.39098003522815 H 0.0 **** 0.06
25136 C 32.368423395490254 16.56319763793917 84.50989537788814 C 0.0 **** -0.24
25137 H 31.93808529839174 15.79028954400701 83.8734130564944 H 0.0 **** 0.06
25138 H 33.12911297118865 17.11066643667425 83.95185062022153 H 0.0 **** 0.06
25139 H 32.822916598678944 16.101201965469045 85.38680218415254 H 0.0 **** 0.06
25140 H 31.585233616380663 17.251601542527467 84.82636554149008 H 0.0 **** 0.06
25141 C 26.89520226990504 20.301021531217657 70.76293202096639 C 0.0 **** -0.24
25142 H 26.315214768210183 20.59744486826642 71.63743720996624 H 0.0 **** 0.06
25143 H 27.863220160953745 19.916288951566003 71.08263145191589 H 0.0 **** 0.06
25144 H 27.042583231220192 21.16571766209657 70.1164314559172 H 0.0 **** 0.06
25145 H 26.357229494012984 19.525976116667465 70.21685283320306 H 0.0 **** 0.06
25146 C 77.83803802954847 118.79032567070085 79.27555750545861 C 0.0 **** -0.24
25147 H 77.80116457683181 117.7171326719071 79.08864388539772 H 0.0 **** 0.06
25148 H 78.28672070787465 119.29255483213574 78.41856725710315 H 0.0 **** 0.06
25149 H 78.43665728757864 118.98384296591416 80.16573142976333 H 0.0 **** 0.06
25150 H 76.82626128146495 119.16632618481619 79.42898509190297 H 0.0 **** 0.06
25151 C 89.78602165387255 106.74071857956088 15.96036705666836 C 0.0 **** -0.24
25152 H 90.30957574258233 107.45239577231473 16.59821125383135 H 0.0 **** 0.06
25153 H 89.05395175691925 107.27043675450528 15.349827164712366 H 0.0 **** 0.06
25154 H 89.27724791492253 106.0024307547124 16.57976588500489 H 0.0 **** 0.06
25155 H 90.50388245528916 106.23753319023186 15.312372518596618 H 0.0 **** 0.06
25156 C 106.8114874917944 36.61449321778744 69.67176317497828 C 0.0 **** -0.24
25157 H 107.2089546593208 37.62819335868073 69.61807458495474 H 0.0 **** 0.06
25158 H 106.86328274801974 36.15174661200828 68.68564631257482 H 0.0 **** 0.06
25159 H 105.77363296732338 36.64815958512182 70.00329920045127 H 0.0 **** 0.06
25160 H 107.39989730584946 36.0298670628483 70.37904934660611 H 0.0 **** 0.06
25161 C 39.42263201170249 22.37847557431727 20.756457683580408 C 0.0 **** -0.24
25162 H 40.07643905323141 22.46161049491874 21.6252278299373 H 0.0 **** 0.06
25163 H 40.02515755051178 22.2146516549698 19.86318099009199 H 0.0 **** 0.06
25164 H 38.849110002308294 23.297762515854103 20.64524845542701 H 0.0 **** 0.06
25165 H 38.74120251397437 21.539736290156927 20.89463783056138 H 0.0 **** 0.06
25166 C 82.6851046196187 35.440465830991144 114.93805849939494 C 0.0 **** -0.24
25167 H 82.76571836380191 35.31251607141303 116.01777785429763 H 0.0 **** 0.06
25168 H 82.0630137338292 34.646129403658506 114.52434338088946 H 0.0 **** 0.06
25169 H 83.67751172950864 35.39450119012014 114.49179531015238 H 0.0 **** 0.06
25170 H 82.23204287909957 36.40777061460898 114.72045313319919 H 0.0 **** 0.06
25171 C 71.05744882472044 105.8175934111801 103.86824473489662 C 0.0 **** -0.24
25172 H 71.83008252679292 105.57042283814886 103.14034884471337 H 0.0 **** 0.06
25173 H 70.70258083468443 106.83299732536466 103.69043529018609 H 0.0 **** 0.06
25174 H 71.47150988143065 105.74781329917218 104.87384491091697 H 0.0 **** 0.06
25175 H 70.22652586997705 105.1181894978757 103.76782127576655 H 0.0 **** 0.06
25176 C 8.459161002939155 87.83689609770511 1.5939914108093092 C 0.0 **** -0.24
25177 H 9.26750038653013 87.71518794714711 0.8728117180072275 H 0.0 **** 0.06
25178 H 8.78139167723981 87.46366757636446 2.5663202950621837 H 0.0 **** 0.06
25179 H 7.586918655395735 87.27385536308543 1.2599359298372121 H 0.0 **** 0.06
25180 H 8.201033091169009 88.89221404536198 1.6755236966488667 H 0.0 **** 0.06
25181 C 97.27378241141628 116.35932271696886 42.321269573582654 C 0.0 **** -0.24
25182 H 97.4473950007422 116.32913667116067 41.24588545354981 H 0.0 **** 0.06
25183 H 97.75771015270766 117.23973109303235 42.74252190068922 H 0.0 **** 0.06
25184 H 97.68653682375898 115.46151370752169 42.78150685504737 H 0.0 **** 0.06
25185 H 96.20179178669522 116.4056459061916 42.51443753777029 H 0.0 **** 0.06
25186 C 23.079333255263762 30.280128422702248 97.1647022167275 C 0.0 **** -0.24
25187 H 23.760404179950996 30.919488790719925 96.60187776702986 H 0.0 **** 0.06
25188 H 22.725430306689958 30.814335143284637 98.04692186096793 H 0.0 **** 0.06
25189 H 23.60206217551962 29.375528334073003 97.4724254946469 H 0.0 **** 0.06
25190 H 22.230252562654414 30.013454002904822 96.5358292031296 H 0.0 **** 0.06
25191 C 61.36393115199553 5.28060872989742 49.284132753472534 C 0.0 **** -0.24
25192 H 61.92143041125428 4.808065126004166 50.0932481511079 H 0.0 **** 0.06
25193 H 61.820744459652815 6.239881515635544 49.039792986053044 H 0.0 **** 0.06
25194 H 60.331787660923794 5.438859707841436 49.598576830486024 H 0.0 **** 0.06
25195 H 61.38141635680154 4.635190225246578 48.40655271315745 H 0.0 **** 0.06
25196 C 111.84357645401397 74.40323061012779 99.07215363543861 C 0.0 **** -0.24
25197 H 111.60713505268919 73.50337577396621 99.64062205815009 H 0.0 **** 0.06
25198 H 112.47248706723889 75.0583119114479 99.67447453021356 H 0.0 **** 0.06
25199 H 110.9200998903035 74.92188087360756 98.81294606997977 H 0.0 **** 0.06
25200 H 112.37354895624685 74.12715634841757 98.16025520360375 H 0.0 **** 0.06
25201 C 75.98899632656031 24.924863215027642 107.77460887608643 C 0.0 **** -0.24
25202 H 76.34288314813892 25.780796078038236 108.34970334600962 H 0.0 **** 0.06
25203 H 76.84173100628988 24.32980625917847 107.4469636660308 H 0.0 **** 0.06
25204 H 75.43453547474803 25.276622272365415 106.9034060186319 H 0.0 **** 0.06
25205 H 75.3360378734144 24.31379826198821 108.39698448015224 H 0.0 **** 0.06
25206 C 50.84172259210871 28.889316348974717 56.63863373101171 C 0.0 **** -0.24
25207 H 51.04764463883144 29.438620116997953 55.72096443209168 H 0.0 **** 0.06
25208 H 50.34995601395201 29.549046476931494 57.354407743321076 H 0.0 **** 0.06
25209 H 51.77854314700099 28.526463863652026 57.06275158443873 H 0.0 **** 0.06
25210 H 50.19141058435099 28.043426838998954 56.417625245847745 H 0.0 **** 0.06
25211 C 22.779764406527732 77.97309081501606 108.47018268033418 C 0.0 **** -0.24
25212 H 23.728617471693184 77.95992256011789 107.93316678426248 H 0.0 **** 0.06
25213 H 22.969899306203132 78.07764128215672 109.53931391985556 H 0.0 **** 0.06
25214 H 22.244317776047893 77.04201126783619 108.28506288393913 H 0.0 **** 0.06
25215 H 22.178792611234798 78.81438672069788 108.12410507997609 H 0.0 **** 0.06
25216 C 63.35224814705095 8.0000873137286 64.53315498826663 C 0.0 **** -0.24
25217 H 63.97349176091023 7.140329568785106 64.78343391626723 H 0.0 **** 0.06
25218 H 62.66537959805721 8.203534450298633 65.35610794231451 H 0.0 **** 0.06
25219 H 62.78300950443536 7.786019030829493 63.62831979030907 H 0.0 **** 0.06
25220 H 63.987469714647624 8.86967589928254 64.366257449204 H 0.0 **** 0.06
25221 C 4.5346992016608425 52.72628664011444 1.9323429228848852 C 0.0 **** -0.24
25222 H 3.4936969696445033 52.47456186123205 1.7280377633592252 H 0.0 **** 0.06
25223 H 4.618298837793418 53.796689491344694 2.1231791579845662 H 0.0 **** 0.06
25224 H 5.14732134709638 52.46164132570917 1.070655903845278 H 0.0 **** 0.06
25225 H 4.878134727440326 52.172713418471915 2.8057725127322897 H 0.0 **** 0.06
25226 C 41.57367874625196 89.29972244945591 98.56633531346606 C 0.0 **** -0.24
25227 H 42.057370360526946 88.64720585597894 97.83948451479736 H 0.0 **** 0.06
25228 H 42.20313925368637 90.17016151561765 98.74939221568289 H 0.0 **** 0.06
25229 H 41.423187548601994 88.75664950283041 99.49956399180886 H 0.0 **** 0.06
25230 H 40.60867951090824 89.62415173729528 98.1767885391875 H 0.0 **** 0.06
25231 C 79.8985708433431 73.15128217165437 21.173300476719103 C 0.0 **** -0.24
25232 H 79.05536929576795 72.55641934728766 21.52661199921509 H 0.0 **** 0.06
25233 H 79.5524416830703 74.1496616567863 20.907382201469403 H 0.0 **** 0.06
25234 H 80.33809819255276 72.6729867381195 20.2984063602162 H 0.0 **** 0.06
25235 H 80.64763211599896 73.22371159169609 21.962190705043856 H 0.0 **** 0.06
25236 C 15.52921831098709 54.38233297525329 54.51627303100326 C 0.0 **** -0.24
25237 H 15.563152926518839 53.478678215684795 55.12435448254153 H 0.0 **** 0.06
25238 H 14.533728711195323 54.490333656269996 54.08269255596618 H 0.0 **** 0.06
25239 H 16.266945730215582 54.31026882688127 53.71752679889035 H 0.0 **** 0.06
25240 H 15.750446552020861 55.248057097979796 55.139012356848006 H 0.0 **** 0.06
25241 C 54.33624271329933 15.98812307040335 83.50677718175893 C 0.0 **** -0.24
25242 H 54.633181698192345 15.616897305200133 82.52601970617792 H 0.0 **** 0.06
25243 H 54.94333268224466 15.507844218128852 84.27543684488973 H 0.0 **** 0.06
25244 H 53.284555700816554 15.758445782723292 83.67861825264595 H 0.0 **** 0.06
25245 H 54.48497454689317 17.067140193240334 83.54663258031178 H 0.0 **** 0.06
25246 C 46.79017520169049 47.04003998814002 42.233615213550365 C 0.0 **** -0.24
25247 H 45.94763993869756 47.367286951634696 41.625203948681246 H 0.0 **** 0.06
25248 H 47.72173944521148 47.26454455405559 41.71365910329564 H 0.0 **** 0.06
25249 H 46.71985827828797 45.96587349890768 42.40492036277374 H 0.0 **** 0.06
25250 H 46.772117998248916 47.56250279434636 43.18942484434797 H 0.0 **** 0.06
25251 C 113.20998447996561 112.66319839799657 1.4687978164817537 C 0.0 **** -0.24
25252 H 112.83172651044745 112.40064265799207 2.4567826152705834 H 0.0 **** 0.06
25253 H 114.10812977388153 113.27269150787848 1.5734343655460634 H 0.0 **** 0.06
25254 H 112.45068392875139 113.22583342422192 0.9261754467275551 H 0.0 **** 0.06
25255 H 113.45051603620432 111.75286647875915 0.9183834096550498 H 0.0 **** 0.06
25256 C 70.58409099227407 65.71887105336126 52.655105033668576 C 0.0 **** -0.24
25257 H 69.60646322137615 65.63220802362375 52.18078020958616 H 0.0 **** 0.06
25258 H 71.3332094885069 65.96224361543676 51.90069736668269 H 0.0 **** 0.06
25259 H 70.8408512314059 64.77321783037684 53.13225565600952 H 0.0 **** 0.06
25260 H 70.55430070300139 66.50907479844219 53.40566561166588 H 0.0 **** 0.06
25261 C 107.17459807686237 68.41400224121463 118.3716500727925 C 0.0 **** -0.24
25262 H 108.08963704956028 68.98931403318079 118.51526983736892 H 0.0 **** 0.06
25263 H 106.64276220199793 68.3344747509581 119.31977482746916 H 0.0 **** 0.06
25264 H 107.42623254166 67.41684816156243 118.01037675543915 H 0.0 **** 0.06
25265 H 106.54141623532712 68.91684827488274 117.64013982900923 H 0.0 **** 0.06
25266 C 16.298371318872768 23.211738370695272 18.890412971257007 C 0.0 **** -0.24
25267 H 16.620610368445 22.35624135668493 19.48349254884249 H 0.0 **** 0.06
25268 H 15.761904449916415 22.860442695723727 18.009393008125443 H 0.0 **** 0.06
25269 H 17.17010280508839 23.788338307844796 18.580736836904805 H 0.0 **** 0.06
25270 H 15.63984590329838 23.84161161808887 19.489718923205913 H 0.0 **** 0.06
25271 C 110.38096955176619 42.36069364722056 90.53834267811908 C 0.0 **** -0.24
25272 H 109.4736308495875 41.97862525132814 91.00630827212285 H 0.0 **** 0.06
25273 H 110.9993884138446 42.849205288062166 91.29153924866426 H 0.0 **** 0.06
25274 H 110.11396549372662 43.08082528624692 89.76414961937365 H 0.0 **** 0.06
25275 H 110.9354302636091 41.5359610036582 90.09205591201822 H 0.0 **** 0.06
25276 C 108.70297129201415 43.86641263987614 11.456922736433512 C 0.0 **** -0.24
25277 H 108.9564361034729 44.761497760431105 12.02568528176667 H 0.0 **** 0.06
25278 H 108.68462049297969 43.004622204135806 12.12558122969881 H 0.0 **** 0.06
25279 H 109.44862733551 43.70715056580329 10.678475447545623 H 0.0 **** 0.06
25280 H 107.72139237123054 43.99307236258833 10.999915380582763 H 0.0 **** 0.06
25281 C 36.414381110921966 44.372561191292476 48.57374895841542 C 0.0 **** -0.24
25282 H 35.47870207461793 44.92447720323335 48.48609048624746 H 0.0 **** 0.06
25283 H 36.30164121966229 43.39083711566771 48.11159504336433 H 0.0 **** 0.06
25284 H 36.66894954485363 44.25174125694477 49.62677271619543 H 0.0 **** 0.06
25285 H 37.208705283338816 44.923120825931875 48.0688729165567 H 0.0 **** 0.06
25286 C 53.38150673967724 13.547283284041697 71.55868182853808 C 0.0 **** -0.24
25287 H 53.722915859192945 12.560813727033349 71.87402014693262 H 0.0 **** 0.06
25288 H 53.17605784861602 14.158252703068655 72.43877375879853 H 0.0 **** 0.06
25289 H 52.47185571229519 13.444707033202604 70.96779467036808 H 0.0 **** 0.06
25290 H 54.15413532264397 14.024552117298242 70.9570058161558 H 0.0 **** 0.06
25291 C 30.0487181731972 1.627821225135639 94.015855945693 C 0.0 **** -0.24
25292 H 29.3460898601669 0.9107885507841438 93.59169424848488 H 0.0 **** 0.06
25293 H 29.57856092545383 2.144642675679112 94.85253230151429 H 0.0 **** 0.06
25294 H 30.33111433213233 2.35364601104526 93.25286748248016 H 0.0 **** 0.06
25295 H 30.938166004948272 1.102904263236173 94.36442489157852 H 0.0 **** 0.06
25296 C 82.50575135992682 111.66254463908547 83.45952711766952 C 0.0 **** -0.24
25297 H 83.02286685575632 111.13899436171558 82.65533668745013 H 0.0 **** 0.06
25298 H 82.83360121201895 112.70227549078848 83.48507829647161 H 0.0 **** 0.06
25299 H 82.73752702372417 111.18485561504085 84.41131059588619 H 0.0 **** 0.06
25300 H 81.43039470147903 111.62378847688883 83.28537605313053 H 0.0 **** 0.06
25301 C 110.52806296280195 101.57132222551596 66.04728199979621 C 0.0 **** -0.24
25302 H 109.59581604272404 101.83625094709296 65.54741693573743 H 0.0 **** 0.06
25303 H 110.76075471314323 102.32189574468455 66.80320300022697 H 0.0 **** 0.06
25304 H 111.33339132955561 101.53059322444514 65.3133978262656 H 0.0 **** 0.06
25305 H 110.42014524531444 100.59597330620761 66.52309277519925 H 0.0 **** 0.06
25306 C 88.98723188586791 92.31651380756608 17.199234592386944 C 0.0 **** -0.24
25307 H 88.4171313326118 91.91571182547244 18.03701240657307 H 0.0 **** 0.06
25308 H 89.97697505379094 92.6155809769827 17.54402851345361 H 0.0 **** 0.06
25309 H 88.46768796031137 93.18250402833178 16.788329917783216 H 0.0 **** 0.06
25310 H 89.0852933697517 91.55318747811731 16.428434793094937 H 0.0 **** 0.06
25311 C 48.39276170618308 47.40858635328078 19.661253569281655 C 0.0 **** -0.24
25312 H 48.14254505775722 46.350182166128675 19.58936637688214 H 0.0 **** 0.06
25313 H 48.68367988049448 47.78033085560392 18.678417239775158 H 0.0 **** 0.06
25314 H 49.2181958611086 47.53970191429751 20.359466010886905 H 0.0 **** 0.06
25315 H 47.52387246349048 47.964118885558975 20.016209545669128 H 0.0 **** 0.06
25316 C 95.21164855194377 56.98695134424029 58.55049746189146 C 0.0 **** -0.24
25317 H 95.66300584888467 56.03217105303711 58.28069242767993 H 0.0 **** 0.06
25318 H 95.08986002236577 57.03796364305469 59.63256209958103 H 0.0 **** 0.06
25319 H 94.2371827612709 57.076567127173924 58.06968560262839 H 0.0 **** 0.06
25320 H 95.85592570640495 57.80088801158754 58.2177969522048 H 0.0 **** 0.06
25321 C 118.24814902636808 9.45618330100216 78.83229332449366 C 0.0 **** -0.24
25322 H 118.15884217681142 8.400506118189103 78.57516968243749 H 0.0 **** 0.06
25323 H 119.25604653488938 9.802923325248841 78.6038101782027 H 0.0 **** 0.06
25324 H 118.05043464623387 9.58898489416233 79.89595602015714 H 0.0 **** 0.06
25325 H 117.52555072697467 10.032163647821495 78.25434099345966 H 0.0 **** 0.06
25326 C 4.249632089184852 82.86891684098498 118.64800485067312 C 0.0 **** -0.24
25327 H 5.178190903910204 82.4211759875092 119.00037277201305 H 0.0 **** 0.06
25328 H 4.3970293959263635 83.26527734489338 117.64282426027611 H 0.0 **** 0.06
25329 H 3.9584064648496096 83.6772891023752 119.31861985655806 H 0.0 **** 0.06
25330 H 3.4652729484930838 82.11188514327759 118.62883846524083 H 0.0 **** 0.06
25331 C 36.32227732069032 90.60438529572394 78.89072011591242 C 0.0 **** -0.24
25332 H 36.75407719378825 90.59001416215338 77.89068970222706 H 0.0 **** 0.06
25333 H 36.73084268964561 89.77980937599318 79.47532210946565 H 0.0 **** 0.06
25334 H 35.239589826455074 90.49769926812249 78.81980128147416 H 0.0 **** 0.06
25335 H 36.56328482802826 91.54951117400276 79.37718698908446 H 0.0 **** 0.06
25336 C 12.096616314068768 31.32734207426867 100.52877270680418 C 0.0 **** -0.24
25337 H 12.274277713048974 30.308142178136848 100.18617447998577 H 0.0 **** 0.06
25338 H 12.630200795642082 32.02493858670829 99.88367950368033 H 0.0 **** 0.06
25339 H 12.452399453231493 31.433314973710452 101.55335634970956 H 0.0 **** 0.06
25340 H 11.028363611424197 31.542083235262368 100.49103676407961 H 0.0 **** 0.06
25341 C 26.75709623936382 69.74158247096642 53.9809531214305 C 0.0 **** -0.24
25342 H 27.18411282149495 70.7127223061062 54.229675421412395 H 0.0 **** 0.06
25343 H 26.06795953284569 69.4356809410171 54.76761275368739 H 0.0 **** 0.06
25344 H 27.55653964808488 69.00561780249532 53.891611925386485 H 0.0 **** 0.06
25345 H 26.220947206154023 69.81205238750522 53.03416707557989 H 0.0 **** 0.06
25346 C 17.26711406571721 65.82023581976222 72.28677419611742 C 0.0 **** -0.24
25347 H 18.152771976525287 65.59177025225466 72.88062113376546 H 0.0 **** 0.06
25348 H 17.554829986915024 66.4168928077379 71.42104527421375 H 0.0 **** 0.06
25349 H 16.556864407655496 66.38083412562793 72.89493335293375 H 0.0 **** 0.06
25350 H 16.80425821808609 64.89213783915085 71.95206216397219 H 0.0 **** 0.06
25351 C 86.8874839773799 83.1861584821923 71.07479220350706 C 0.0 **** -0.24
25352 H 86.05548179329378 83.33611691251721 71.76320155449633 H 0.0 **** 0.06
25353 H 86.5325001704436 83.28108073157964 70.04856277662688 H 0.0 **** 0.06
25354 H 87.30637979920701 82.19004688521122 71.22418651044325 H 0.0 **** 0.06
25355 H 87.65617905789478 83.93525619415698 71.26547276802049 H 0.0 **** 0.06
25356 C 87.64287200096771 108.31066949741228 113.93420019974921 C 0.0 **** -0.24
25357 H 86.73868620256746 108.11087031567897 113.3599712855133 H 0.0 **** 0.06
25358 H 87.41275077101488 109.00565511234132 114.7432224014662 H 0.0 **** 0.06
25359 H 88.39775017156916 108.7493025580072 113.28263172477874 H 0.0 **** 0.06
25360 H 88.02086611800132 107.37814089250315 114.353043138054 H 0.0 **** 0.06
25361 C 98.16943439689348 59.20938599839124 14.496015771943888 C 0.0 **** -0.24
25362 H 97.08641630572475 59.14374577537171 14.596687027748402 H 0.0 **** 0.06
25363 H 98.47212667528788 58.784184298274766 13.538559491537796 H 0.0 **** 0.06
25364 H 98.64365960884547 58.654363056777015 15.305347930842117 H 0.0 **** 0.06
25365 H 98.47664002848603 60.253990624871534 14.543905538293671 H 0.0 **** 0.06
25366 C 87.68771513128829 103.7547806910083 102.41639046637067 C 0.0 **** -0.24
25367 H 87.05237887881347 104.1898000183565 101.6450172822953 H 0.0 **** 0.06
25368 H 87.63474664996508 104.36488965060866 103.31820196460205 H 0.0 **** 0.06
25369 H 88.71770426467154 103.71837530525735 102.06084492460366 H 0.0 **** 0.06
25370 H 87.34473424056128 102.74423682412501 102.64155674889366 H 0.0 **** 0.06
25371 C 97.63347126354094 39.12403644676216 55.02791344376386 C 0.0 **** -0.24
25372 H 98.45860324676141 39.55984273066404 54.46496261298873 H 0.0 **** 0.06
25373 H 97.66953548052632 38.037346134889475 54.94318929107143 H 0.0 **** 0.06
25374 H 96.68760380991876 39.489116999781984 54.62673821352476 H 0.0 **** 0.06
25375 H 97.7176082253774 39.410154835259625 56.075979170042295 H 0.0 **** 0.06
25376 C 76.45016148408499 103.78818374862033 7.575110499492649 C 0.0 **** -0.24
25377 H 75.85979610927282 103.30980498397668 6.7931347354493425 H 0.0 **** 0.06
25378 H 76.46428647804862 104.86542300102349 7.411490187106995 H 0.0 **** 0.06
25379 H 77.46859577947615 103.4017667420515 7.547981123465416 H 0.0 **** 0.06
25380 H 76.00488908118467 103.57379166401626 8.546983500198817 H 0.0 **** 0.06
25381 C 70.07599374365546 9.731577114510213 11.500288691110882 C 0.0 **** -0.24
25382 H 69.43659255768694 9.65135669877008 12.379193325543923 H 0.0 **** 0.06
25383 H 71.00227030246569 10.240588522598792 11.770351284275023 H 0.0 **** 0.06
25384 H 69.56060300840218 10.300504511888807 10.7269294382005 H 0.0 **** 0.06
25385 H 70.30547104364788 8.733900566214356 11.125716594072458 H 0.0 **** 0.06
25386 C 103.87902329590946 11.616262384073849 88.37155491878389 C 0.0 **** -0.24
25387 H 102.89490289555343 11.731243535565568 88.82677463560975 H 0.0 **** 0.06
25388 H 104.54714640637351 11.114894175386013 89.07267193420182 H 0.0 **** 0.06
25389 H 104.28206247241565 12.599009093422097 88.12415246328544 H 0.0 **** 0.06
25390 H 103.79113668459686 11.020120327646282 87.46373383986531 H 0.0 **** 0.06
25391 C 14.92606524753334 87.72434826584634 38.02219302443518 C 0.0 **** -0.24
25392 H 14.768045397063474 87.23568634095949 38.983408814711396 H 0.0 **** 0.06
25393 H 14.412111420750929 88.6860171426867 38.01444331840142 H 0.0 **** 0.06
25394 H 14.5315818717776 87.09389324169905 37.22584457761073 H 0.0 **** 0.06
25395 H 15.993973516982027 87.88162893847164 37.86600604479651 H 0.0 **** 0.06
25396 C 11.652718456070858 7.282251844000513 56.367866851368575 C 0.0 **** -0.24
25397 H 11.668456610015852 6.336344843184946 55.82578672016544 H 0.0 **** 0.06
25398 H 10.82228669961745 7.2818298193080295 57.073817615960564 H 0.0 **** 0.06
25399 H 11.529268465860554 8.102789927321254 55.66095389243051 H 0.0 **** 0.06
25400 H 12.591245745407065 7.405683211162113 56.90883896722116 H 0.0 **** 0.06
25401 C 31.35086190712073 45.4321811629747 86.6254802161867 C 0.0 **** -0.24
25402 H 31.571946084129593 45.282486256447186 87.68150374595038 H 0.0 **** 0.06
25403 H 31.578114712649352 46.46223148882967 86.34778946220831 H 0.0 **** 0.06
25404 H 30.294361606509028 45.231523596706495 86.44333929637239 H 0.0 **** 0.06
25405 H 31.95731833177271 44.75111101469247 86.0272380315372 H 0.0 **** 0.06
25406 C 104.25630291640917 69.3751402778957 42.67888641780854 C 0.0 **** -0.24
25407 H 104.60159000599165 70.08915722327205 41.93106945709894 H 0.0 **** 0.06
25408 H 104.64102658499084 68.38441708234754 42.43860581170259 H 0.0 **** 0.06
25409 H 103.16666392751048 69.35231601932674 42.68241931040234 H 0.0 **** 0.06
25410 H 104.61620225026635 69.67774673966548 43.66276874194193 H 0.0 **** 0.06
25411 C 28.120002335007612 111.61468948089596 95.17695430349639 C 0.0 **** -0.24
25412 H 27.31627479460245 110.95052882328127 94.86023330682562 H 0.0 **** 0.06
25413 H 27.854300590286158 112.6450656162099 94.93758793639034 H 0.0 **** 0.06
25414 H 29.039728338854445 111.34670697760572 94.65560115256793 H 0.0 **** 0.06
25415 H 28.269512598145027 111.51776734799782 96.25189583701012 H 0.0 **** 0.06
25416 C 112.09340911586423 62.39093665475061 50.69598360752059 C 0.0 **** -0.24
25417 H 112.48807647801576 62.38827459717705 49.68070036321865 H 0.0 **** 0.06
25418 H 111.06418776761815 62.031001444104625 50.686781520769046 H 0.0 **** 0.06
25419 H 112.12048875218366 63.405551446022606 51.094339142714944 H 0.0 **** 0.06
25420 H 112.70061032835463 61.73810712780887 51.323238642387196 H 0.0 **** 0.06
25421 C 54.60000225446504 59.46310166482993 17.871806202436858 C 0.0 **** -0.24
25422 H 53.77586048999649 58.94347660251294 17.38470598557251 H 0.0 **** 0.06
25423 H 54.2217120226033 60.02834286293801 18.723157725933618 H 0.0 **** 0.06
25424 H 55.06913692574483 60.14493920461208 17.162629363998832 H 0.0 **** 0.06
25425 H 55.33565675589443 58.73539247561613 18.216116280224867 H 0.0 **** 0.06
25426 C 75.22434100356617 114.05814486099473 106.5257153236912 C 0.0 **** -0.24
25427 H 75.76426335941352 113.85736571158398 107.4514205632039 H 0.0 **** 0.06
25428 H 74.45747524574429 114.8103529099194 106.70822964550302 H 0.0 **** 0.06
25429 H 74.75618628545544 113.13918404964917 106.17261792920235 H 0.0 **** 0.06
25430 H 75.92090087333074 114.42412577166536 105.77126989614482 H 0.0 **** 0.06
25431 C 2.573936608644459 11.722947364564892 80.01502339472233 C 0.0 **** -0.24
25432 H 3.005634026878795 12.485004918726855 80.66504899557617 H 0.0 **** 0.06
25433 H 2.736068522451717 10.737926070165763 80.4526212214962 H 0.0 **** 0.06
25434 H 3.050574964098388 11.769427017237511 79.03619294401977 H 0.0 **** 0.06
25435 H 1.5038051247096575 11.90156512144674 79.9080565861567 H 0.0 **** 0.06
25436 C 57.32828757753359 58.42277631480888 33.82379219510416 C 0.0 **** -0.24
25437 H 58.252962963632655 58.88814216887388 33.48038616093813 H 0.0 **** 0.06
25438 H 56.64660747496967 58.30472779079448 32.98163642675727 H 0.0 **** 0.06
25439 H 56.865108630696966 59.052700218628964 34.58248029975489 H 0.0 **** 0.06
25440 H 57.551940092351515 57.444552415332886 34.250712783517486 H 0.0 **** 0.06
25441 C 68.70915872846876 42.23228113474835 52.731813900727104 C 0.0 **** -0.24
25442 H 68.42319212862847 42.75712838568978 53.64402501139995 H 0.0 **** 0.06
25443 H 67.87013729317806 42.228430785489195 52.03615970237607 H 0.0 **** 0.06
25444 H 68.98403983015578 41.205421874866886 52.97593497095238 H 0.0 **** 0.06
25445 H 69.55955642408074 42.737654883874825 52.27424675474322 H 0.0 **** 0.06
25446 C 106.60231016798613 110.45408361226715 48.77700669021186 C 0.0 **** -0.24
25447 H 107.57527179756843 110.00428617227921 48.58002069979648 H 0.0 **** 0.06
25448 H 106.54787663968017 110.75841921648069 49.821868094572324 H 0.0 **** 0.06
25449 H 105.817515842787 109.7260931428712 48.56938596839268 H 0.0 **** 0.06
25450 H 106.46838769967016 111.32531738289667 48.136545134550374 H 0.0 **** 0.06
25451 C 90.27575212940073 98.68226148200992 97.348278574255 C 0.0 **** -0.24
25452 H 90.88555530706003 99.55410388418167 97.58611571365256 H 0.0 **** 0.06
25453 H 89.55740801103863 98.51234643013728 98.15149852303676 H 0.0 **** 0.06
25454 H 90.91770060350328 97.80788537639071 97.24323512534681 H 0.0 **** 0.06
25455 H 89.74248979780305 98.85724690018839 96.4146197090028 H 0.0 **** 0.06
25456 C 85.08177486952579 60.747539503110424 33.39887120471255 C 0.0 **** -0.24
25457 H 85.93598012153757 61.321601662575794 33.759073431134 H 0.0 **** 0.06
25458 H 84.16634627504214 61.31406126658204 33.56618552473512 H 0.0 **** 0.06
25459 H 85.02676862438676 59.80122945648551 33.93804672752833 H 0.0 **** 0.06
25460 H 85.19890016016768 60.551877665954656 32.332700150280886 H 0.0 **** 0.06
25461 C 8.362966589928973 21.92149724505515 0.8302402595531078 C 0.0 **** -0.24
25462 H 8.082418636724412 21.68424710722212 -0.19540525397006547 H 0.0 **** 0.06
25463 H 8.515468775193185 22.996701579697685 0.9258138550443249 H 0.0 **** 0.06
25464 H 9.285508586879814 21.398937979014136 1.0839303666858484 H 0.0 **** 0.06
25465 H 7.569371351174723 21.60513783775508 1.5071301242831368 H 0.0 **** 0.06
25466 C 53.3487058936858 2.442654583129382 2.0552384825689725 C 0.0 **** -0.24
25467 H 52.87894569375669 2.10112183726352 2.9773291918479767 H 0.0 **** 0.06
25468 H 52.72724880960402 3.2108434805329864 1.5943995578857262 H 0.0 **** 0.06
25469 H 53.455845460698015 1.6018508304986483 1.369301327296256 H 0.0 **** 0.06
25470 H 54.33161507501978 2.8563075755847933 2.2792993503932895 H 0.0 **** 0.06
25471 C 28.23140230802892 69.83510283217188 102.95609002557632 C 0.0 **** -0.24
25472 H 28.505420747175975 68.77946936159296 102.96941403444637 H 0.0 **** 0.06
25473 H 29.117974361541656 70.44206063639788 103.141224627989 H 0.0 **** 0.06
25474 H 27.48941246707571 70.02680422435961 103.73214434496634 H 0.0 **** 0.06
25475 H 27.812441030237608 70.0894572519 101.98258047918776 H 0.0 **** 0.06
25476 C 25.510228924731962 78.47661634345349 102.41915763762961 C 0.0 **** -0.24
25477 H 25.19097523224383 78.03811963306816 103.36443710092232 H 0.0 **** 0.06
25478 H 26.26984008148372 77.84143138528293 101.96318774302648 H 0.0 **** 0.06
25479 H 25.92541883322309 79.46749114859665 102.59979527501596 H 0.0 **** 0.06
25480 H 24.65397746843115 78.55730424958824 101.74933117593511 H 0.0 **** 0.06
25481 C 106.83118557136336 73.88692611120803 69.78775178664407 C 0.0 **** -0.24
25482 H 107.7737342610555 74.42589581249575 69.88801268049994 H 0.0 **** 0.06
25483 H 106.26890257778186 74.29328776634677 68.94617071842612 H 0.0 **** 0.06
25484 H 106.24924645537169 74.00068989397079 70.7018525370843 H 0.0 **** 0.06
25485 H 107.03356897180137 72.83062421135517 69.61413798271928 H 0.0 **** 0.06
25486 C 87.93426869812947 112.51612415623902 46.33300189631815 C 0.0 **** -0.24
25487 H 87.47169273325963 113.25829883898389 46.984218321112074 H 0.0 **** 0.06
25488 H 88.9616632845206 112.8115787970587 46.117961097216444 H 0.0 **** 0.06
25489 H 87.37225920653557 112.45141024841794 45.40124226126504 H 0.0 **** 0.06
25490 H 87.92977955487666 111.54486963006774 46.82793833143228 H 0.0 **** 0.06
25491 C 35.64166038050344 54.88959754643659 83.4187066049438 C 0.0 **** -0.24
25492 H 34.86300478385476 55.51116753961654 82.9762579718971 H 0.0 **** 0.06
25493 H 35.334679980148174 53.84330201011798 83.38567073836668 H 0.0 **** 0.06
25494 H 35.802168799297874 55.189314784524214 84.45435384082941 H 0.0 **** 0.06
25495 H 36.568645510595864 55.014223543879126 82.85699348381243 H 0.0 **** 0.06
25496 C 115.16570164342536 19.51111538995565 60.916121120986986 C 0.0 **** -0.24
25497 H 115.99877105809634 19.071150273395716 60.36787882220011 H 0.0 **** 0.06
25498 H 114.457978927857 19.948632299336907 60.21189027192321 H 0.0 **** 0.06
25499 H 115.54032443374842 20.28595544850029 61.585904137840714 H 0.0 **** 0.06
25500 H 114.66588516655537 18.737887011269095 61.49994126362836 H 0.0 **** 0.06
25501 C 113.373960914395 25.396768950130124 87.2251836765914 C 0.0 **** -0.24
25502 H 114.12191614983968 25.05173885386538 86.51172959092074 H 0.0 **** 0.06
25503 H 113.68894396965243 25.13728691695144 88.2362852360886 H 0.0 **** 0.06
25504 H 112.41765435573194 24.92131179143788 87.00858776298742 H 0.0 **** 0.06
25505 H 113.2674506015624 26.47918312790499 87.1442222461572 H 0.0 **** 0.06
25506 C 46.32467756064099 10.699157000643154 9.252742499847042 C 0.0 **** -0.24
25507 H 46.89887447461825 10.681546184680954 8.327131213047345 H 0.0 **** 0.06
25508 H 46.72154622467808 9.952144417349018 9.94036961421731 H 0.0 **** 0.06
25509 H 45.2797824946921 10.475461889831337 9.037283971483653 H 0.0 **** 0.06
25510 H 46.397666361945795 11.687137292126778 9.707661354376913 H 0.0 **** 0.06
25511 C 101.58898654013271 10.989461787283517 35.35777058647403 C 0.0 **** -0.24
25512 H 101.1264716503951 11.854077349846833 35.833963281709885 H 0.0 **** 0.06
25513 H 102.67037764683829 11.125203882009046 35.33031233399777 H 0.0 **** 0.06
25514 H 101.20894788865326 10.889670657720885 34.34124370520095 H 0.0 **** 0.06
25515 H 101.34966352994505 10.090504985558994 35.92514673023851 H 0.0 **** 0.06
25516 C 69.07138628455402 28.795135112010342 86.44181737317498 C 0.0 **** -0.24
25517 H 69.18784581223068 27.75943430982943 86.76244121947138 H 0.0 **** 0.06
25518 H 68.12368149783322 28.90858511947019 85.91626789839836 H 0.0 **** 0.06
25519 H 69.89187675353259 29.06334049289083 85.77640034421077 H 0.0 **** 0.06
25520 H 69.08386507811173 29.44848288064381 87.31451409734498 H 0.0 **** 0.06
25521 C 6.871180678924716 30.961244346966588 34.14403929701889 C 0.0 **** -0.24
25522 H 6.789590440922353 30.61671006201029 33.112771255243395 H 0.0 **** 0.06
25523 H 6.639790857135026 32.02553030689872 34.19027490609384 H 0.0 **** 0.06
25524 H 7.886927371557562 30.794481463775675 34.503451877601016 H 0.0 **** 0.06
25525 H 6.168910668533314 30.40896615236786 34.76815961805856 H 0.0 **** 0.06
25526 C 113.4194676991109 43.16137063688211 75.67745458953348 C 0.0 **** -0.24
25527 H 113.76025031550162 43.554713395568754 74.71966115740184 H 0.0 **** 0.06
25528 H 112.56111688973523 42.50836903506948 75.51695096260448 H 0.0 **** 0.06
25529 H 113.13049719448149 43.98773427355184 76.32672629447273 H 0.0 **** 0.06
25530 H 114.22499109563863 42.5953396883296 76.14524897968036 H 0.0 **** 0.06
25531 C 77.33320782707759 61.639047961578285 80.47928318011631 C 0.0 **** -0.24
25532 H 77.40354317002439 61.0514843435148 81.39478332546713 H 0.0 **** 0.06
25533 H 77.99008117450529 62.507040937243175 80.55443177749095 H 0.0 **** 0.06
25534 H 76.30495721714786 61.973577313957946 80.34017390068718 H 0.0 **** 0.06
25535 H 77.63502250490262 61.02714314772908 79.62949794723019 H 0.0 **** 0.06
25536 C 84.73901316710118 46.42021077661161 29.413480127949995 C 0.0 **** -0.24
25537 H 84.33723369863122 45.409094806498786 29.339653377392175 H 0.0 **** 0.06
25538 H 84.66324741727419 46.766410218472174 30.444210966173237 H 0.0 **** 0.06
25539 H 84.1702019149123 47.08421472349295 28.763184778136335 H 0.0 **** 0.06
25540 H 85.78404964323278 46.4179965348693 29.105296140296964 H 0.0 **** 0.06
25541 C 31.478747660932 66.21929889187726 96.02819322949654 C 0.0 **** -0.24
25542 H 30.94731699318625 67.15110336379388 95.83744370818079 H 0.0 **** 0.06
25543 H 30.761176044774665 65.40250343592731 96.11234065412373 H 0.0 **** 0.06
25544 H 32.04221222893296 66.30509138690616 96.95721631204731 H 0.0 **** 0.06
25545 H 32.1647718014192 66.01733738977072 95.20512576945691 H 0.0 **** 0.06
25546 C 13.064301907869648 108.40394107921028 36.02413428200521 C 0.0 **** -0.24
25547 H 14.073122980586973 108.81269432736025 35.97248781694918 H 0.0 **** 0.06
25548 H 12.633104879968442 108.62266443084494 37.00097602008151 H 0.0 **** 0.06
25549 H 13.101552157511364 107.3250341914422 35.87640525363696 H 0.0 **** 0.06
25550 H 12.449217929681879 108.85652146377205 35.24476183605623 H 0.0 **** 0.06
25551 C 13.124915527936395 37.6341338860305 112.24645986131095 C 0.0 **** -0.24
25552 H 12.351741384004981 38.399931017564995 112.3064602825732 H 0.0 **** 0.06
25553 H 13.414430707007412 37.49099217115713 111.20571688543573 H 0.0 **** 0.06
25554 H 12.739067714651213 36.696637892628985 112.64782421142279 H 0.0 **** 0.06
25555 H 13.99260717253398 37.94794947318337 112.82664737375102 H 0.0 **** 0.06
25556 C 107.01282711306047 89.60003249706406 72.6874507188245 C 0.0 **** -0.24
25557 H 106.63444217613562 89.70461718122496 71.67114397990338 H 0.0 **** 0.06
25558 H 108.00575855388595 90.04538721849505 72.75404598489865 H 0.0 **** 0.06
25559 H 107.06968848507844 88.54360475653107 72.94717500000138 H 0.0 **** 0.06
25560 H 106.33928121091918 90.10758490676778 73.37895351507314 H 0.0 **** 0.06
25561 C 84.43479101758231 14.055440429599685 55.45874246711863 C 0.0 **** -0.24
25562 H 85.27354807157579 13.373128636408865 55.31956700304061 H 0.0 **** 0.06
25563 H 83.5449532897693 13.637656450110228 54.987254433067356 H 0.0 **** 0.06
25564 H 84.66899714450176 15.017348859835238 55.00485358644516 H 0.0 **** 0.06
25565 H 84.25059044731813 14.190650857724563 56.525021943334515 H 0.0 **** 0.06
25566 C 37.0955054979473 17.587636751961366 84.71744144861412 C 0.0 **** -0.24
25567 H 36.47692775856055 18.076054044946954 83.96457380324497 H 0.0 **** 0.06
25568 H 37.05705066658942 18.159282124091792 85.6459286564102 H 0.0 **** 0.06
25569 H 38.125004282523236 17.535731452141704 84.36417580059907 H 0.0 **** 0.06
25570 H 36.72095922579871 16.579011113069182 84.8962935311283 H 0.0 **** 0.06
25571 C 109.00665702326836 77.62493423210151 10.831485530624434 C 0.0 **** -0.24
25572 H 108.30166063690598 78.45587602029298 10.843950761019073 H 0.0 **** 0.06
25573 H 108.48335904416504 76.70899051767947 10.557889332332763 H 0.0 **** 0.06
25574 H 109.44969421836845 77.5095070691197 11.820211038142475 H 0.0 **** 0.06
25575 H 109.79174215352276 77.82652892013232 10.101743403300162 H 0.0 **** 0.06
25576 C 9.71287413568814 56.29482362150652 0.15271046179293712 C 0.0 **** -0.24
25577 H 10.682409325366535 56.32003835038541 -0.3455789630420618 H 0.0 **** 0.06
25578 H 9.58818622415589 57.19846148526738 0.7499333222072124 H 0.0 **** 0.06
25579 H 9.659831093218884 55.41995704058031 0.8003874231907879 H 0.0 **** 0.06
25580 H 8.921808621763091 56.24127494210705 -0.5959647168705438 H 0.0 **** 0.06
25581 C 95.22962942576828 41.06269906168461 9.926683593203279 C 0.0 **** -0.24
25582 H 96.28998217753809 40.82229300773594 10.006172971674943 H 0.0 **** 0.06
25583 H 95.10791935077006 41.98060931898209 9.352162098335754 H 0.0 **** 0.06
25584 H 94.813753809253 41.20000526280637 10.924942608222466 H 0.0 **** 0.06
25585 H 94.70861466705287 40.24750844965547 9.425125596276018 H 0.0 **** 0.06
25586 C 73.80072285654967 92.85121474681208 93.5555702710796 C 0.0 **** -0.24
25587 H 73.2843975726085 93.80745779795865 93.65052873145018 H 0.0 **** 0.06
25588 H 73.09332091234768 92.08682290192928 93.23498466623889 H 0.0 **** 0.06
25589 H 74.22604672504787 92.5723890877417 94.51985988066124 H 0.0 **** 0.06
25590 H 74.59876003980276 92.94144013544437 92.81872388716715 H 0.0 **** 0.06
25591 C 59.458473723983126 104.17196070934389 55.68912097322008 C 0.0 **** -0.24
25592 H 59.1300758087857 103.27255802612956 56.210269903380954 H 0.0 **** 0.06
25593 H 59.88670134590276 103.89698251696183 54.72483952602882 H 0.0 **** 0.06
25594 H 60.21100784728467 104.68472990581557 56.28914995774884 H 0.0 **** 0.06
25595 H 58.60568235807647 104.83292977611521 55.53432320894624 H 0.0 **** 0.06
25596 C 14.06822692970465 67.20082386557752 102.12399081347195 C 0.0 **** -0.24
25597 H 13.757074856321623 67.4794217481747 101.1172027655399 H 0.0 **** 0.06
25598 H 13.191169631263762 66.92901050964196 102.71223449164876 H 0.0 **** 0.06
25599 H 14.573890254550577 68.0440777679903 102.5930653823113 H 0.0 **** 0.06
25600 H 14.74920240673842 66.35168483755027 102.07180993599519 H 0.0 **** 0.06
25601 C 83.66636168056323 42.22488452312501 97.55388858800336 C 0.0 **** -0.24
25602 H 84.3686504938575 41.481869092369436 97.17625113057548 H 0.0 **** 0.06
25603 H 82.64890438520388 41.84576227646892 97.4546636707959 H 0.0 **** 0.06
25604 H 83.76909436444615 43.14621124005549 96.97988624408356 H 0.0 **** 0.06
25605 H 83.87882636342692 42.42548601765728 98.60377588738058 H 0.0 **** 0.06
25606 C 7.096530716651031 1.637805489205185 73.22286546207889 C 0.0 **** -0.24
25607 H 7.9280619361500655 1.7672239754687027 72.52969427872802 H 0.0 **** 0.06
25608 H 7.0149654017920575 0.5859658083303554 73.49764533585159 H 0.0 **** 0.06
25609 H 6.17142572719106 1.9609503811074145 72.74501011268674 H 0.0 **** 0.06
25610 H 7.272704899461392 2.2349640825420742 74.1172562099014 H 0.0 **** 0.06
25611 C 93.76754624318801 10.226598222550194 115.67477557250372 C 0.0 **** -0.24
25612 H 93.35259232471364 9.356018852897705 115.166810635588 H 0.0 **** 0.06
25613 H 93.23885978524791 11.12299724086364 115.34970629682783 H 0.0 **** 0.06
25614 H 94.82566294192065 10.319537875570745 115.42990857147149 H 0.0 **** 0.06
25615 H 93.65262102766096 10.10700893299179 116.75234561612677 H 0.0 **** 0.06
25616 C 114.7010840758994 82.16594963213402 4.3896217461863785 C 0.0 **** -0.24
25617 H 114.95068564407103 82.14517686140925 5.45010799084784 H 0.0 **** 0.06
25618 H 115.22690010373458 82.9905204168364 3.9084782299989342 H 0.0 **** 0.06
25619 H 113.62615303095247 82.30065085286458 4.271692253018728 H 0.0 **** 0.06
25620 H 115.00105572491296 81.22416960248833 3.9280439465676977 H 0.0 **** 0.06
25621 C 26.055900060894828 20.911450888788124 63.5469237190467 C 0.0 **** -0.24
25622 H 25.484200116765123 21.5665317130281 64.20493884560025 H 0.0 **** 0.06
25623 H 25.576504813866393 19.93249129020279 63.50261807303764 H 0.0 **** 0.06
25624 H 27.069208327983517 20.804328125854738 63.93245007131557 H 0.0 **** 0.06
25625 H 26.091716993678006 21.344471611273377 62.54666683165172 H 0.0 **** 0.06
25626 C 38.278399812455405 112.69583861096793 96.6849760708372 C 0.0 **** -0.24
25627 H 38.10076340377816 112.95252511302427 95.64093542134881 H 0.0 **** 0.06
25628 H 39.28116152537012 112.27945151370173 96.79098749155719 H 0.0 **** 0.06
25629 H 37.542702945069465 111.95965941172618 97.00851565506278 H 0.0 **** 0.06
25630 H 38.190364758545115 113.59195885894145 97.29949370109298 H 0.0 **** 0.06
25631 C 70.22684782066412 20.46753768852017 88.28213562815685 C 0.0 **** -0.24
25632 H 70.9566707444992 20.280912767461476 87.49519145682046 H 0.0 **** 0.06
25633 H 70.73800778569944 20.536239984227052 89.24224293301327 H 0.0 **** 0.06
25634 H 69.50620163445518 19.649636164553637 88.3112010937457 H 0.0 **** 0.06
25635 H 69.70651111800302 21.403361837838553 88.079907029048 H 0.0 **** 0.06
25636 C 64.92803657022432 63.8829914226512 47.15144162603792 C 0.0 **** -0.24
25637 H 65.61987703893843 63.2830764887328 47.74252994163294 H 0.0 **** 0.06
25638 H 64.0227965427562 63.30867788336951 46.95762999674645 H 0.0 **** 0.06
25639 H 65.39775226315467 64.15192194170993 46.20483338241536 H 0.0 **** 0.06
25640 H 64.6734102548235 64.78989218993851 47.70001433299245 H 0.0 **** 0.06
25641 C 93.43780023169819 33.372623684588305 4.993492092036249 C 0.0 **** -0.24
25642 H 94.13142444753379 33.833409514872045 5.697418568808672 H 0.0 **** 0.06
25643 H 92.97513874676474 34.146210141131405 4.380560678113369 H 0.0 **** 0.06
25644 H 92.6650510470954 32.835563275939165 5.545131003373768 H 0.0 **** 0.06
25645 H 93.97879337003843 32.67576850275787 4.353534411489733 H 0.0 **** 0.06
25646 C 64.82180746905135 29.828473274421242 86.12364485189735 C 0.0 **** -0.24
25647 H 65.18717783687984 30.68548403677454 85.55691063013057 H 0.0 **** 0.06
25648 H 64.39825949991118 30.1720456702823 87.06737558337014 H 0.0 **** 0.06
25649 H 65.6480180442758 29.14600544643818 86.32281893578053 H 0.0 **** 0.06
25650 H 64.0553299092227 29.311871284738515 85.54633810745517 H 0.0 **** 0.06
25651 C 18.191139865504624 33.47670558827838 3.4047301111853727 C 0.0 **** -0.24
25652 H 19.157269703580283 33.38584911571146 3.9005655396977232 H 0.0 **** 0.06
25653 H 18.21439165543825 32.92961140445553 2.461908327207169 H 0.0 **** 0.06
25654 H 17.981061716742744 34.52860165484627 3.208453605509902 H 0.0 **** 0.06
25655 H 17.41221407286588 33.06473231060233 4.046000859205321 H 0.0 **** 0.06
25656 C 101.01913933115955 36.22037262825006 39.25608753412399 C 0.0 **** -0.24
25657 H 101.37934379933412 35.2426463784887 38.93623180873385 H 0.0 **** 0.06
25658 H 101.86911229662019 36.88204182662031 39.425991798825976 H 0.0 **** 0.06
25659 H 100.45200287484607 36.113077250353115 40.1808937461318 H 0.0 **** 0.06
25660 H 100.37876784367495 36.64269434215453 38.48213388037544 H 0.0 **** 0.06
25661 C 0.8740835504060982 95.78530409444471 66.46546641389062 C 0.0 **** -0.24
25662 H 1.3587953744866041 95.46963038962213 65.54177971876283 H 0.0 **** 0.06
25663 H 0.031199446922713037 96.43458551465085 66.22954572834044 H 0.0 **** 0.06
25664 H 1.59001676614227 96.32815220799574 67.08360086333732 H 0.0 **** 0.06
25665 H 0.5179972527362224 94.9084291525104 67.00708113833724 H 0.0 **** 0.06
25666 C 70.24114599528659 45.835351556687364 5.406842852675936 C 0.0 **** -0.24
25667 H 70.19310789362345 46.916990888184294 5.280046638972294 H 0.0 **** 0.06
25668 H 70.89052364265532 45.408610884855584 4.641219087902556 H 0.0 **** 0.06
25669 H 69.24098417047458 45.41359130874629 5.311757961408716 H 0.0 **** 0.06
25670 H 70.64206939542925 45.60325769927381 6.393644481328067 H 0.0 **** 0.06
25671 C 88.12476964137471 23.36991194770738 114.60861366736407 C 0.0 **** -0.24
25672 H 88.01428843057846 22.944427762960544 115.60608832139886 H 0.0 **** 0.06
25673 H 87.4617625268522 22.84895707886443 113.91658602072297 H 0.0 **** 0.06
25674 H 89.15700541401844 23.25722960165959 114.27885087323443 H 0.0 **** 0.06
25675 H 87.86447922278379 24.427920347107943 114.63447244518687 H 0.0 **** 0.06
25676 C 60.31001220973312 109.42580497419954 107.44630338244752 C 0.0 **** -0.24
25677 H 60.59233282935915 110.34030025069629 106.92427172547576 H 0.0 **** 0.06
25678 H 60.48378910019335 108.56821776252346 106.79685338659272 H 0.0 **** 0.06
25679 H 59.25417678078145 109.47195148194348 107.71372932633315 H 0.0 **** 0.06
25680 H 60.909352331785556 109.32494610374081 108.35050380748845 H 0.0 **** 0.06
25681 C 109.42573815676127 20.33536054524421 50.92701867892919 C 0.0 **** -0.24
25682 H 110.49055600387777 20.166276343979263 51.08998219068136 H 0.0 **** 0.06
25683 H 109.2803380811336 20.83579311615195 49.96964903722869 H 0.0 **** 0.06
25684 H 109.03035594810018 20.958999928453142 51.72888176320122 H 0.0 **** 0.06
25685 H 108.90419906027648 19.377810794650937 50.92001403492903 H 0.0 **** 0.06
25686 C 39.21445310516336 25.02090274716724 105.06702245675058 C 0.0 **** -0.24
25687 H 39.25265629442016 25.461046799621585 104.07085617277545 H 0.0 **** 0.06
25688 H 40.170639456812324 25.1759361576147 105.56937992244906 H 0.0 **** 0.06
25689 H 39.01702302966444 23.951795105670953 104.98501745642596 H 0.0 **** 0.06
25690 H 38.42010645412074 25.494114253756464 105.64364694181359 H 0.0 **** 0.06
25691 C 10.94364833140503 25.70609766757576 32.8675220299547 C 0.0 **** -0.24
25692 H 11.76034561472477 26.385229385904566 33.10845380050105 H 0.0 **** 0.06
25693 H 11.052189287589755 24.78814886568702 33.44700934729818 H 0.0 **** 0.06
25694 H 10.969431608867495 25.470016511085163 31.803651978597742 H 0.0 **** 0.06
25695 H 9.992241766865021 26.179706686605044 33.11140861325816 H 0.0 **** 0.06
25696 C 64.81812606063033 92.6476941423987 100.70627266428224 C 0.0 **** -0.24
25697 H 64.0989407141193 92.35064092051226 99.94276666696734 H 0.0 **** 0.06
25698 H 64.73135672961541 93.71964564826652 100.8894876826098 H 0.0 **** 0.06
25699 H 65.82730182887587 92.4187377279116 100.36329041812999 H 0.0 **** 0.06
25700 H 64.61536266390726 92.10334858221896 101.62804835626017 H 0.0 **** 0.06
25701 C 1.7641169211043177 106.91673820691759 14.576706251310668 C 0.0 **** -0.24
25702 H 1.7407379552004159 106.31935298436665 13.664447527814616 H 0.0 **** 0.06
25703 H 1.0559419726773456 106.50596710931396 15.29699436940109 H 0.0 **** 0.06
25704 H 1.4895596622392304 107.94537176558882 14.344099605040299 H 0.0 **** 0.06
25705 H 2.767954679465049 106.89491953887298 14.999857782525169 H 0.0 **** 0.06
25706 C 68.30836737965848 81.07136204510067 52.083507392511905 C 0.0 **** -0.24
25707 H 69.20664083487503 81.55084964622768 52.47256781620925 H 0.0 **** 0.06
25708 H 67.57034068205829 80.97897747386702 52.88076349739842 H 0.0 **** 0.06
25709 H 68.5611327995646 80.08091912847391 51.705762758167396 H 0.0 **** 0.06
25710 H 67.8963014123917 81.67440372386096 51.27480973374932 H 0.0 **** 0.06
25711 C 86.56191203502505 103.66254034471422 10.815631902001186 C 0.0 **** -0.24
25712 H 86.09888882580219 102.99699394991592 10.086103863959565 H 0.0 **** 0.06
25713 H 87.5830151454985 103.88692207122335 10.505585279956605 H 0.0 **** 0.06
25714 H 86.57687772050971 103.176142292838 11.791504123652913 H 0.0 **** 0.06
25715 H 85.98862683428217 104.58642708250767 10.878678170835116 H 0.0 **** 0.06
25716 C 43.70582742612069 81.04731984777351 67.40238460660319 C 0.0 **** -0.24
25717 H 42.7043645236804 81.17672250461649 66.99196826023154 H 0.0 **** 0.06
25718 H 43.754374787637715 80.10592297167102 67.95061695291434 H 0.0 **** 0.06
25719 H 43.93029924400511 81.87315877683773 68.07681843287767 H 0.0 **** 0.06
25720 H 44.43278418740152 81.0326838212298 66.59053843645981 H 0.0 **** 0.06
25721 C 44.319628852376525 9.32226822386514 82.10202265720818 C 0.0 **** -0.24
25722 H 44.37255437675941 8.253974928112893 81.89139523573454 H 0.0 **** 0.06
25723 H 43.290384744698144 9.596920087930489 82.33449100243084 H 0.0 **** 0.06
25724 H 44.655686080614714 9.880959897879084 81.22822648501395 H 0.0 **** 0.06
25725 H 44.9608419151339 9.556909326361794 82.95174198620313 H 0.0 **** 0.06
25726 C 0.4220469572981198 19.454832895796542 71.61585666609281 C 0.0 **** -0.24
25727 H 1.242242557206934 18.823840127214325 71.27332217298112 H 0.0 **** 0.06
25728 H -0.3716847752154102 18.82836749849639 72.02469734514483 H 0.0 **** 0.06
25729 H 0.034019955079731545 20.032725636342036 70.7777483629823 H 0.0 **** 0.06
25730 H 0.7846924752873008 20.132913506692333 72.38844872439535 H 0.0 **** 0.06
25731 C 8.687750642305303 61.90593437116962 110.57957666830725 C 0.0 **** -0.24
25732 H 8.547364260106178 62.83459749421087 110.02591064078962 H 0.0 **** 0.06
25733 H 7.715146050713571 61.469903712431915 110.80886289686867 H 0.0 **** 0.06
25734 H 9.221727865494444 62.11268393127523 111.50649060816488 H 0.0 **** 0.06
25735 H 9.265975001975875 61.20696199002808 109.97594290407613 H 0.0 **** 0.06
25736 C 114.27754494114765 85.56454654575549 95.63459317948747 C 0.0 **** -0.24
25737 H 114.93129329945393 85.57840715473543 94.7625481501533 H 0.0 **** 0.06
25738 H 114.86712923802841 85.34792354665188 96.52686867164655 H 0.0 **** 0.06
25739 H 113.51634827130812 84.79519913707458 95.50629764308678 H 0.0 **** 0.06
25740 H 113.79655651877661 86.53673484779773 95.74395328670425 H 0.0 **** 0.06
25741 C 115.61312341082692 60.20792597202985 54.83177664768642 C 0.0 **** -0.24
25742 H 114.89292261954301 60.63262644494967 54.1331445257646 H 0.0 **** 0.06
25743 H 115.91357810385034 59.217874299622515 54.487264971888834 H 0.0 **** 0.06
25744 H 115.15633735827362 60.125535482104176 55.81937020554603 H 0.0 **** 0.06
25745 H 116.48818434400539 60.854673637885845 54.889745143707806 H 0.0 **** 0.06
25746 C 64.07646540895968 97.19937847060845 81.08223417590796 C 0.0 **** -0.24
25747 H 65.14641388787851 97.3691651446509 80.95576917951917 H 0.0 **** 0.06
25748 H 63.52247622059883 98.02308408165825 80.63086439970152 H 0.0 **** 0.06
25749 H 63.84063710657736 97.14231747510823 82.14516769157004 H 0.0 **** 0.06
25750 H 63.79775205956582 96.26467601986306 80.59717677675712 H 0.0 **** 0.06
25751 C 9.540486395326639 58.28810207507811 73.72294777571048 C 0.0 **** -0.24
25752 H 10.605794875360687 58.05949777907832 73.76418526810872 H 0.0 **** 0.06
25753 H 9.071119615374272 57.689919964770304 72.94162608358258 H 0.0 **** 0.06
25754 H 9.404553244319317 59.34645993029053 73.5022435583549 H 0.0 **** 0.06
25755 H 9.082195969967813 58.05507333741635 74.68469781212156 H 0.0 **** 0.06
25756 C 115.8246761715082 100.63951511939001 72.43785166428091 C 0.0 **** -0.24
25757 H 116.30395265660593 99.83656514904217 72.99768552383654 H 0.0 **** 0.06
25758 H 116.2076438201737 101.60065888481424 72.7814532302589 H 0.0 **** 0.06
25759 H 114.74664706820153 100.59935720115942 72.59649343528528 H 0.0 **** 0.06
25760 H 116.03955161107001 100.52042808452384 71.37603511913142 H 0.0 **** 0.06
25761 C 48.42674697616394 71.02155900255343 28.192511471142325 C 0.0 **** -0.24
25762 H 48.561983798040984 69.95045110267432 28.043893129513492 H 0.0 **** 0.06
25763 H 49.368729040077 71.5359351412026 27.999038937658895 H 0.0 **** 0.06
25764 H 48.114259659239565 71.20913286012075 29.219656193009428 H 0.0 **** 0.06
25765 H 47.66371645656298 71.3909396004261 27.50721884758599 H 0.0 **** 0.06
25766 C 9.742273700539783 45.99588749326858 9.845111213276368 C 0.0 **** -0.24
25767 H 9.079981107099115 46.09866638564711 8.985236445001846 H 0.0 **** 0.06
25768 H 9.151538476179269 45.99606426419484 10.761414362137202 H 0.0 **** 0.06
25769 H 10.444426857314 46.82874432222047 9.8650600358024 H 0.0 **** 0.06
25770 H 10.293876174351908 45.057966697516235 9.768573892355562 H 0.0 **** 0.06
25771 C 80.65439526802294 82.09979684822432 77.56053625068628 C 0.0 **** -0.24
25772 H 80.53459033572679 82.53280958199613 76.56732059778474 H 0.0 **** 0.06
25773 H 79.9012959108835 82.51442258097245 78.23102149269877 H 0.0 **** 0.06
25774 H 81.64845403384345 82.33284526999475 77.94075475320795 H 0.0 **** 0.06
25775 H 80.53286593743235 81.01820632189697 77.5008024355684 H 0.0 **** 0.06
25776 C 86.46056189661869 65.27325589061553 18.24596943203648 C 0.0 **** -0.24
25777 H 85.67999919423607 65.38729999486736 18.99809599844808 H 0.0 **** 0.06
25778 H 86.84696145864098 64.25396924807558 18.275511736732387 H 0.0 **** 0.06
25779 H 87.26893548568393 65.97424736054049 18.453937384173102 H 0.0 **** 0.06
25780 H 86.04786157260983 65.4777079202166 17.258917113582125 H 0.0 **** 0.06
25781 C 14.572081504413433 49.84244136101671 93.46301489806882 C 0.0 **** -0.24
25782 H 13.595570628836327 49.48736522591463 93.13247735930986 H 0.0 **** 0.06
25783 H 15.014686962931847 50.463949028604816 92.6837586673588 H 0.0 **** 0.06
25784 H 15.220899237011963 48.9895508695177 93.6605013197179 H 0.0 **** 0.06
25785 H 14.455449949448251 50.42936646593421 94.37364079557878 H 0.0 **** 0.06
25786 C 87.96322004927094 75.5836327572649 105.05280099463013 C 0.0 **** -0.24
25787 H 88.91432421413691 75.62820960831954 105.58490477764641 H 0.0 **** 0.06
25788 H 87.40343961044755 76.50208195020309 105.23374463162295 H 0.0 **** 0.06
25789 H 87.38743891728558 74.73015731365237 105.41131368097558 H 0.0 **** 0.06
25790 H 88.14908008479404 75.4740892088856 103.98470980746544 H 0.0 **** 0.06
25791 C 72.93603128782675 116.07184698071296 47.13888692934847 C 0.0 **** -0.24
25792 H 73.52446481875427 116.83042402339515 47.655262212381956 H 0.0 **** 0.06
25793 H 71.94536277457189 116.46962777521198 46.91750730428066 H 0.0 **** 0.06
25794 H 72.84073422032188 115.19086994632158 47.77440290901893 H 0.0 **** 0.06
25795 H 73.43455573896449 115.79675260876252 46.209341321804914 H 0.0 **** 0.06
25796 C 115.43566220403218 3.5741316415532367 83.63243748695919 C 0.0 **** -0.24
25797 H 115.9068592455736 3.6854602264639738 82.65570882350346 H 0.0 **** 0.06
25798 H 114.60186402873376 4.271131160737951 83.71505605492655 H 0.0 **** 0.06
25799 H 116.16550323555308 3.78704192246272 84.41377024084625 H 0.0 **** 0.06
25800 H 115.06899752722273 2.5536430356811195 83.745541953405 H 0.0 **** 0.06
25801 C 75.70527573056984 67.70896566226898 2.3691211328479653 C 0.0 **** -0.24
25802 H 76.53428484823095 67.78371366060284 1.665299994377662 H 0.0 **** 0.06
25803 H 76.05997572414364 67.94232007706077 3.373653996463176 H 0.0 **** 0.06
25804 H 75.30349349374313 66.69617345247997 2.352076896118973 H 0.0 **** 0.06
25805 H 74.92411736241888 68.41458629298344 2.086190572663952 H 0.0 **** 0.06
25806 C 61.940001548966244 24.385837133246632 80.2447887510132 C 0.0 **** -0.24
25807 H 62.745857190306474 23.897665822775437 80.7935865940307 H 0.0 **** 0.06
25808 H 61.13968456677441 24.65109212480322 80.93585322435479 H 0.0 **** 0.06
25809 H 61.55514748508988 23.70660798454893 79.48501075594646 H 0.0 **** 0.06
25810 H 62.3221151891344 25.288095562995878 79.7669755262041 H 0.0 **** 0.06
25811 C 85.44999221579181 4.3360933858992325 75.63758739078287 C 0.0 **** -0.24
25812 H 84.85284375532785 5.246231676590682 75.58637659629221 H 0.0 **** 0.06
25813 H 85.91969885595975 4.155605624541195 74.66985627980091 H 0.0 **** 0.06
25814 H 84.80686002635773 3.4936449728529198 75.89276820543972 H 0.0 **** 0.06
25815 H 86.2202326714418 4.448547011843516 76.40001793833312 H 0.0 **** 0.06
25816 C 100.03424261641169 52.4948550255078 33.4523393329722 C 0.0 **** -0.24
25817 H 99.2321868109874 53.131887884812926 33.82465528506833 H 0.0 **** 0.06
25818 H 100.98583087043684 52.83165416802541 33.8646386792426 H 0.0 **** 0.06
25819 H 100.06807489261192 52.553396484583175 32.36454393387402 H 0.0 **** 0.06
25820 H 99.85015208275561 51.46405303494416 33.75545731953696 H 0.0 **** 0.06
25821 C 77.21864826927384 7.815959755726567 22.799949001165317 C 0.0 **** -0.24
25822 H 76.35968672383495 8.417102528114413 23.09683442446429 H 0.0 **** 0.06
25823 H 76.90981191450675 6.776635525360206 22.680467112428822 H 0.0 **** 0.06
25824 H 77.98878163985273 7.879762036367879 23.568557106701746 H 0.0 **** 0.06
25825 H 77.61429542209629 8.189143859275049 21.855519276972963 H 0.0 **** 0.06
25826 C 64.67415810578825 14.06672966156188 31.62201273424529 C 0.0 **** -0.24
25827 H 64.89224563373958 14.001806340265375 30.55584980867232 H 0.0 **** 0.06
25828 H 63.65357539059806 14.424201962744547 31.762526449318273 H 0.0 **** 0.06
25829 H 65.3702433982485 14.760155481745812 32.09382356450217 H 0.0 **** 0.06
25830 H 64.77963881898961 13.080200015075462 32.07494068372915 H 0.0 **** 0.06
25831 C 21.343929225790166 29.97151842426573 27.66505240294677 C 0.0 **** -0.24
25832 H 20.27035874144222 30.147876539739528 27.732155329492485 H 0.0 **** 0.06
25833 H 21.872669214088127 30.9226508869585 27.733314236031077 H 0.0 **** 0.06
25834 H 21.575090165239562 29.494039953198175 26.713671612804774 H 0.0 **** 0.06
25835 H 21.656230671397662 29.32157855171279 28.482835732888162 H 0.0 **** 0.06
25836 C 80.72077196275444 90.12266205996872 76.17117372312 C 0.0 **** -0.24
25837 H 80.37619328210093 89.44821848977486 75.386065396829 H 0.0 **** 0.06
25838 H 80.02945668857106 90.96187438184668 76.25682723057298 H 0.0 **** 0.06
25839 H 81.71476377063908 90.49363022796908 75.92073912452372 H 0.0 **** 0.06
25840 H 80.76107054068004 89.58539227281364 77.11859747069866 H 0.0 **** 0.06
25841 C 86.61221439378315 26.692604299289286 102.7139141013372 C 0.0 **** -0.24
25842 H 86.48132157966228 25.988405052166826 103.53555274562501 H 0.0 **** 0.06
25843 H 85.63661521301458 27.037941285270364 102.37204107865807 H 0.0 **** 0.06
25844 H 87.13078420961949 26.198209176194325 101.89228438182934 H 0.0 **** 0.06
25845 H 87.20088374291984 27.544055824264973 103.05469150609235 H 0.0 **** 0.06
25846 C 36.999356630076704 59.01607440868069 46.37009119280336 C 0.0 **** -0.24
25847 H 37.27876790533611 59.6813196317056 47.186881056912895 H 0.0 **** 0.06
25848 H 35.94920174091396 58.740034347932315 46.47024217156634 H 0.0 **** 0.06
25849 H 37.61600666225337 58.11885788046957 46.40467025889052 H 0.0 **** 0.06
25850 H 37.1512687381948 59.52519822732068 45.41863431735431 H 0.0 **** 0.06
25851 C 106.60240719883768 73.77379898411334 55.20925345660356 C 0.0 **** -0.24
25852 H 107.5928032963597 73.61023674859476 55.63348276413376 H 0.0 **** 0.06
25853 H 105.92040057181939 74.09960224423423 55.994212517268124 H 0.0 **** 0.06
25854 H 106.23790587399637 72.84351072639765 54.77230245635576 H 0.0 **** 0.06
25855 H 106.66017965153983 74.54012469255244 54.43648777320561 H 0.0 **** 0.06
25856 C 88.31069258607764 11.018240539699264 93.83545698432576 C 0.0 **** -0.24
25857 H 87.4949031169927 11.640365235170322 93.46693155797323 H 0.0 **** 0.06
25858 H 87.95710166282015 9.99560434821096 93.96743901178337 H 0.0 **** 0.06
25859 H 88.66041457407064 11.408040982540484 94.79218097851981 H 0.0 **** 0.06
25860 H 89.1294685236114 11.030773497496511 93.11665561606358 H 0.0 **** 0.06
25861 C 9.442269466709092 93.38314602862604 67.43029710750085 C 0.0 **** -0.24
25862 H 9.724718102519347 94.37432593794628 67.78730245250546 H 0.0 **** 0.06
25863 H 10.044311487070217 92.62902022428923 67.93756455995276 H 0.0 **** 0.06
25864 H 9.613108667113949 93.3230057713908 66.35500052390847 H 0.0 **** 0.06
25865 H 8.387431235392825 93.20962960432419 67.64085557521815 H 0.0 **** 0.06
25866 C 106.53590898063567 8.840442740552191 21.813718387148754 C 0.0 **** -0.24
25867 H 106.4588237566345 8.401556120188701 22.807834525961994 H 0.0 **** 0.06
25868 H 107.57169575926241 8.791335601581267 21.475285370287253 H 0.0 **** 0.06
25869 H 106.21463151609183 9.881046033421029 21.85066575581328 H 0.0 **** 0.06
25870 H 105.90028419735114 8.287127273938154 21.122592723727564 H 0.0 **** 0.06
25871 C 10.795643297759426 25.930929650788897 57.55118786321663 C 0.0 **** -0.24
25872 H 9.81574101882542 25.451721457317113 57.527214207022375 H 0.0 **** 0.06
25873 H 11.357956577071974 25.5620900752494 58.40917138787224 H 0.0 **** 0.06
25874 H 10.669438923802076 27.010205364574382 57.63521132730397 H 0.0 **** 0.06
25875 H 11.336257088920291 25.698035146851815 56.6334915728933 H 0.0 **** 0.06
25876 C 6.4837923725593285 101.77603034436925 83.787057024891 C 0.0 **** -0.24
25877 H 5.570585448279706 102.20330550238452 84.20208432572 H 0.0 **** 0.06
25878 H 7.015027202810604 102.53868760722185 83.217149088534 H 0.0 **** 0.06
25879 H 6.229996573155077 100.9423527503049 83.13244574981792 H 0.0 **** 0.06
25880 H 7.118527398083128 101.41999749282127 84.5995296227374 H 0.0 **** 0.06
25881 C 85.55562314584324 112.95434071455662 80.05550709360574 C 0.0 **** -0.24
25882 H 85.55293506887048 112.51206395000804 81.05143207607435 H 0.0 **** 0.06
25883 H 84.73718384396781 112.53463083008154 79.46944875952462 H 0.0 **** 0.06
25884 H 86.50336079571647 112.73615070029774 79.56368394393294 H 0.0 **** 0.06
25885 H 85.42874568117028 114.0338007627322 80.13681928991608 H 0.0 **** 0.06
25886 C 18.801285404349755 67.47932601674495 24.302403341959447 C 0.0 **** -0.24
25887 H 19.554524419166512 68.2637046926894 24.37104446157774 H 0.0 **** 0.06
25888 H 19.177816112682308 66.57188153185257 24.774063895596683 H 0.0 **** 0.06
25889 H 18.57907969705917 67.27971945753663 23.25355612504344 H 0.0 **** 0.06
25890 H 17.89312654425072 67.80328525813809 24.809953750816575 H 0.0 **** 0.06
25891 C 33.43686235732732 89.6115352015982 34.60003199501128 C 0.0 **** -0.24
25892 H 34.17178853135752 90.27650401804766 35.05296744617789 H 0.0 **** 0.06
25893 H 33.92654495103453 88.98145185585 33.85776082890527 H 0.0 **** 0.06
25894 H 32.65965721714508 90.20422511006609 34.11848203914374 H 0.0 **** 0.06
25895 H 32.990634763079285 88.98408380067656 35.37169335401026 H 0.0 **** 0.06
25896 C 109.24688430188579 23.951532391489103 21.387853120559242 C 0.0 **** -0.24
25897 H 109.51404502246228 23.412648756469473 22.297080357126163 H 0.0 **** 0.06
25898 H 108.83489218389448 23.25256188199188 20.65994289697062 H 0.0 **** 0.06
25899 H 110.13632076439269 24.4262776275188 20.972350570641993 H 0.0 **** 0.06
25900 H 108.50425154444022 24.713591606653296 21.621946792014427 H 0.0 **** 0.06
25901 C 85.03858939639468 25.270873067026628 34.27013447586077 C 0.0 **** -0.24
25902 H 86.01833561675124 25.174207676690685 33.80222880168907 H 0.0 **** 0.06
25903 H 84.84970091569522 24.39973185696624 34.898294299943544 H 0.0 **** 0.06
25904 H 84.27233569746164 25.33613828972807 33.49831893422753 H 0.0 **** 0.06
25905 H 85.0167411503748 26.171898733597402 34.88202571742755 H 0.0 **** 0.06
25906 C 84.17015579625254 80.66498079774885 105.3144652461942 C 0.0 **** -0.24
25907 H 83.58986085409938 79.80610895494027 104.97800205629107 H 0.0 **** 0.06
25908 H 84.97156712633446 80.32714744833999 105.97233160066082 H 0.0 **** 0.06
25909 H 83.52023306792549 81.35218153233748 105.85727850725232 H 0.0 **** 0.06
25910 H 84.59844080901593 81.17510499625337 104.45233315056939 H 0.0 **** 0.06
25911 C 70.57410730305793 97.6063587341477 68.4157463433261 C 0.0 **** -0.24
25912 H 71.3076988164699 98.1198217323709 67.79468291979069 H 0.0 **** 0.06
25913 H 69.60687868234459 97.60789279142318 67.91130692987213 H 0.0 **** 0.06
25914 H 70.4848790766485 98.1189026223584 69.37343034081374 H 0.0 **** 0.06
25915 H 70.89536721724795 96.57806995010634 68.58135977323602 H 0.0 **** 0.06
25916 C 110.73212088092373 115.98118492712157 89.24508267740893 C 0.0 **** -0.24
25917 H 111.25876818162487 116.5908340759712 88.5116489462686 H 0.0 **** 0.06
25918 H 110.7500451833155 116.48189587760625 90.21420906635785 H 0.0 **** 0.06
25919 H 111.2197111052615 115.01030919098503 89.32818861852067 H 0.0 **** 0.06
25920 H 109.69861385322764 115.84303623418502 88.92747012823071 H 0.0 **** 0.06
25921 C 2.6604963632860006 94.57785027448881 51.30551030806953 C 0.0 **** -0.24
25922 H 3.749199029321332 94.5583523571182 51.24504563992585 H 0.0 **** 0.06
25923 H 2.238082492770914 94.20433208794327 50.37255089267717 H 0.0 **** 0.06
25924 H 2.3247918250523867 95.60105714935813 51.47427560413365 H 0.0 **** 0.06
25925 H 2.332314533201881 93.94628011346663 52.13199290219663 H 0.0 **** 0.06
25926 C 24.999364459981336 67.75619603361307 30.19804631198548 C 0.0 **** -0.24
25927 H 24.672919477305285 66.91919741128055 29.582196939788147 H 0.0 **** 0.06
25928 H 24.767386853889718 68.69278152322181 29.69056073956773 H 0.0 **** 0.06
25929 H 26.075112795707994 67.68907484772456 30.36234442750697 H 0.0 **** 0.06
25930 H 24.48230653982769 67.72505340407383 31.156661335762905 H 0.0 **** 0.06
25931 C 109.33886242249488 48.28360597787531 68.09574829895132 C 0.0 **** -0.24
25932 H 109.1934018364162 49.341986220916 68.30963609226069 H 0.0 **** 0.06
25933 H 110.19825258321924 47.91492051983272 68.65650332760282 H 0.0 **** 0.06
25934 H 109.51471530380597 48.14903010606423 67.02863225619609 H 0.0 **** 0.06
25935 H 108.4478876504534 47.72820593166284 68.39009225205376 H 0.0 **** 0.06
25936 C 109.47427861019804 33.799401236244194 109.39752464161887 C 0.0 **** -0.24
25937 H 109.65666731184808 32.734142218570156 109.25899628691488 H 0.0 **** 0.06
25938 H 109.96681077990567 34.35968221420592 108.60293050378328 H 0.0 **** 0.06
25939 H 109.87090260113507 34.11336539346894 110.36349127569108 H 0.0 **** 0.06
25940 H 108.40148548095922 33.99173154209234 109.36598784547363 H 0.0 **** 0.06
25941 C 98.98548961873496 79.64568770057804 7.103770371301579 C 0.0 **** -0.24
25942 H 99.11582397415185 78.59612595835188 6.838918129361517 H 0.0 **** 0.06
25943 H 97.93130457004867 79.91101729111705 7.024899271190378 H 0.0 **** 0.06
25944 H 99.56940886209014 80.26673281425815 6.4254100107156376 H 0.0 **** 0.06
25945 H 99.32514470045089 79.806337449338 8.127073193441177 H 0.0 **** 0.06
25946 C 89.59650800658841 15.001428085855537 14.85412932736429 C 0.0 **** -0.24
25947 H 89.5327345093645 15.215978402032079 15.920921094537533 H 0.0 **** 0.06
25948 H 89.35120189992526 15.899545506809034 14.288591092730314 H 0.0 **** 0.06
25949 H 88.89315650883088 14.208418989251527 14.60081373163004 H 0.0 **** 0.06
25950 H 90.60949903491559 14.681068716457446 14.608239744520233 H 0.0 **** 0.06
25951 C 4.596509790563232 103.66609609199566 81.11896398688128 C 0.0 **** -0.24
25952 H 5.684992824959693 103.70428995108097 81.14399218355288 H 0.0 **** 0.06
25953 H 4.194699553729947 104.15359619725962 82.00739787238433 H 0.0 **** 0.06
25954 H 4.269750218140018 102.62645788325634 81.09446596985521 H 0.0 **** 0.06
25955 H 4.236183081652712 104.18093496595836 80.22775737397399 H 0.0 **** 0.06
25956 C 81.31255894769146 34.4803393876615 25.999220243385878 C 0.0 **** -0.24
25957 H 81.57414673517366 34.94381654313893 25.048529829279403 H 0.0 **** 0.06
25958 H 80.46584667928295 33.808581806567815 25.85586162721276 H 0.0 **** 0.06
25959 H 81.04626416449986 35.253669414102674 26.71954677453769 H 0.0 **** 0.06
25960 H 82.16628571920859 33.91444892497212 26.37434589232521 H 0.0 **** 0.06
25961 C 40.16692626558419 70.57984282300993 89.54051597295773 C 0.0 **** -0.24
25962 H 40.181526007950986 69.77628080353117 90.27687288382293 H 0.0 **** 0.06
25963 H 39.292296045973245 71.20920315427355 89.7060881448034 H 0.0 **** 0.06
25964 H 40.12394120757538 70.1532525508704 88.53844981466648 H 0.0 **** 0.06
25965 H 41.07121192239607 71.18036050609251 89.64121133190685 H 0.0 **** 0.06
25966 C 27.955630013463463 55.199706313340755 21.122685066600695 C 0.0 **** -0.24
25967 H 28.94574842833657 54.74362908050887 21.114101959882657 H 0.0 **** 0.06
25968 H 27.466277109711655 55.022829602183606 20.16467360563508 H 0.0 **** 0.06
25969 H 28.051796728760223 56.27248559903052 21.288637196489866 H 0.0 **** 0.06
25970 H 27.361095213701788 54.76029548291612 21.923043115260164 H 0.0 **** 0.06
25971 C 18.8120972315567 77.55948007385231 84.28173136273074 C 0.0 **** -0.24
25972 H 19.434340150122157 78.39498379664727 83.96085933979646 H 0.0 **** 0.06
25973 H 18.837856841376016 77.4855485166598 85.3692888020858 H 0.0 **** 0.06
25974 H 19.189829569893813 76.63545585615887 83.84429784759755 H 0.0 **** 0.06
25975 H 17.786142239125056 77.72435968082527 83.95223682319886 H 0.0 **** 0.06
25976 C 53.04563577217662 93.21408442118889 11.930889883644198 C 0.0 **** -0.24
25977 H 53.846546319306 92.82648579906305 11.302178418466767 H 0.0 **** 0.06
25978 H 52.27952051920806 92.44896552930095 12.057104302202504 H 0.0 **** 0.06
25979 H 52.60792451632225 94.09427111716877 11.460317056334944 H 0.0 **** 0.06
25980 H 53.4499713915937 93.48666790401518 12.905955290012159 H 0.0 **** 0.06
25981 C 81.61071864443144 9.181815992984554 14.508358778895769 C 0.0 **** -0.24
25982 H 81.47962183852079 9.8493665970025 13.656240573837977 H 0.0 **** 0.06
25983 H 81.47921909730218 8.149659491986625 14.185703674617997 H 0.0 **** 0.06
25984 H 80.8724506378995 9.42120541525216 15.273342171988219 H 0.0 **** 0.06
25985 H 82.61294813178168 9.31005026803058 14.9183217599753 H 0.0 **** 0.06
25986 C 78.27369409344317 53.99439540586411 49.75566700437693 C 0.0 **** -0.24
25987 H 78.23250981463511 54.91609999064033 49.17654612252966 H 0.0 **** 0.06
25988 H 78.3193734604873 53.14169894137308 49.07810836224576 H 0.0 **** 0.06
25989 H 77.38110630116208 53.916936748484176 50.37801326765842 H 0.0 **** 0.06
25990 H 79.15916157281268 54.003857783465975 50.39029154270216 H 0.0 **** 0.06
25991 C 47.30356818752658 17.51786339135387 87.6358822132392 C 0.0 **** -0.24
25992 H 47.17271102050489 16.842360489982184 86.79039311711196 H 0.0 **** 0.06
25993 H 46.378584551747934 18.06888971672572 87.80662719172773 H 0.0 **** 0.06
25994 H 48.109851654126984 18.218690989554517 87.41787474098422 H 0.0 **** 0.06
25995 H 47.55341390279911 16.94110944057718 88.52551049212445 H 0.0 **** 0.06
25996 C 51.54581235973954 118.4533460653184 101.99490885020305 C 0.0 **** -0.24
25997 H 50.688605364231904 118.48833797763811 101.32305227164068 H 0.0 **** 0.06
25998 H 51.58734351503947 117.47813522772374 102.48154386826405 H 0.0 **** 0.06
25999 H 51.44595253614304 119.23215683869283 102.75123509607434 H 0.0 **** 0.06
26000 H 52.4609330779527 118.61445862214819 101.42512346799276 H 0.0 **** 0.06
26001 C 117.90394426334743 50.59807163112845 34.80918862942292 C 0.0 **** -0.24
26002 H 118.25889544643405 51.15028880990809 35.67954455366785 H 0.0 **** 0.06
26003 H 118.74414188272718 50.383836301110705 34.14755138724158 H 0.0 **** 0.06
26004 H 117.16458290001788 51.19564535492924 34.27623368761613 H 0.0 **** 0.06
26005 H 117.44861188264204 49.66256824422004 35.13431385319231 H 0.0 **** 0.06
26006 C 10.336233216973199 3.7749544979054264 89.4242817259028 C 0.0 **** -0.24
26007 H 11.12046647802029 4.0949585713978305 90.11119600231058 H 0.0 **** 0.06
26008 H 9.379300402008539 4.183114256469972 89.74959967950684 H 0.0 **** 0.06
26009 H 10.283066253960897 2.6865948787870533 89.41505438273569 H 0.0 **** 0.06
26010 H 10.562957746492145 4.135538496158988 88.42094043896057 H 0.0 **** 0.06
26011 C 55.58996941204919 116.81602476698134 106.77367985014234 C 0.0 **** -0.24
26012 H 55.31400368728283 117.00316826859424 107.81120564291814 H 0.0 **** 0.06
26013 H 54.894913657628514 117.33683483266846 106.11472767437363 H 0.0 **** 0.06
26014 H 55.5493263808438 115.74594969598115 106.57453428955142 H 0.0 **** 0.06
26015 H 56.60128708404249 117.18114468887205 106.59622409003691 H 0.0 **** 0.06
26016 C 65.32102104934373 40.935802071088034 65.89673115892933 C 0.0 **** -0.24
26017 H 64.60375053011947 41.58566233390604 65.39623724020385 H 0.0 **** 0.06
26018 H 65.0442040835303 40.82798044864879 66.9451172477824 H 0.0 **** 0.06
26019 H 66.31787303332084 41.37266426738162 65.82625281984232 H 0.0 **** 0.06
26020 H 65.31885789377128 39.956844654990135 65.4169433994411 H 0.0 **** 0.06
26021 C 104.20171092902245 89.96607034157967 63.600027770972765 C 0.0 **** -0.24
26022 H 103.50157140351382 89.98673681694319 64.43625813176405 H 0.0 **** 0.06
26023 H 104.33635860241102 88.93757206666592 63.26543868082157 H 0.0 **** 0.06
26024 H 105.16067378474034 90.37377794225023 63.918851055396296 H 0.0 **** 0.06
26025 H 103.80539966732906 90.56651947024443 62.78047309590551 H 0.0 **** 0.06
26026 C 28.85440993216625 29.874923561533507 102.49306265800857 C 0.0 **** -0.24
26027 H 28.418487018884406 29.2646041958468 101.70164867101559 H 0.0 **** 0.06
26028 H 29.90390279445228 30.06882595260089 102.26576040097228 H 0.0 **** 0.06
26029 H 28.78011610503114 29.344444836086893 103.44278175576673 H 0.0 **** 0.06
26030 H 28.316853355989736 30.820082784507235 102.56189199108249 H 0.0 **** 0.06
26031 C 44.052411396289784 10.96073071499282 27.97753084759114 C 0.0 **** -0.24
26032 H 44.91252683137864 10.629547820335546 28.558596110842515 H 0.0 **** 0.06
26033 H 43.35459939294245 10.131777407777292 27.85603419575078 H 0.0 **** 0.06
26034 H 44.38637722809149 11.301667449331035 26.997555063795176 H 0.0 **** 0.06
26035 H 43.556142132746544 11.779930182527494 28.497938019976118 H 0.0 **** 0.06
26036 C 107.12580363181468 88.10241425206905 75.88194464466773 C 0.0 **** -0.24
26037 H 107.78365520203457 88.79793608915767 75.36048105544086 H 0.0 **** 0.06
26038 H 106.17636484192906 88.59256095813001 76.09644111472437 H 0.0 **** 0.06
26039 H 107.59378554441057 87.79202575768687 76.81581960645758 H 0.0 **** 0.06
26040 H 106.95104652867707 87.22888706431343 75.25454068785228 H 0.0 **** 0.06
26041 C 100.60004015310275 69.2390719154069 111.78732404373618 C 0.0 **** -0.24
26042 H 100.78079220718925 70.29173504705793 112.00407176534158 H 0.0 **** 0.06
26043 H 101.3349057679705 68.62967936191365 112.31384170026007 H 0.0 **** 0.06
26044 H 100.68821136314651 69.06830461050538 110.7149165327673 H 0.0 **** 0.06
26045 H 99.59788653018899 68.96697236958246 112.11824474146047 H 0.0 **** 0.06
26046 C 66.9586903655663 26.585165219462056 37.47490490878101 C 0.0 **** -0.24
26047 H 66.90345682100809 26.71687391675073 38.55598478746657 H 0.0 **** 0.06
26048 H 66.17536658289123 27.174656453659395 36.99665434048768 H 0.0 **** 0.06
26049 H 66.82125968985116 25.531620733188305 37.23048636977575 H 0.0 **** 0.06
26050 H 67.93320990382685 26.91706035588038 37.11811953807717 H 0.0 **** 0.06
26051 C 94.79056160841904 84.21437744915221 35.97614255987643 C 0.0 **** -0.24
26052 H 95.64918489810793 84.25801524556806 36.64493046315264 H 0.0 **** 0.06
26053 H 95.08293723407616 83.73916227092963 35.039378640687154 H 0.0 **** 0.06
26054 H 94.43455972121419 85.22488794759107 35.77470329303797 H 0.0 **** 0.06
26055 H 93.99450867098503 83.63610177616698 36.44435243850803 H 0.0 **** 0.06
26056 C 35.79154024478922 91.43562897095859 59.825503889022855 C 0.0 **** -0.24
26057 H 35.56511589348081 91.55891372061524 58.76670437119128 H 0.0 **** 0.06
26058 H 36.192767564125134 92.36910676867626 60.22207859621608 H 0.0 **** 0.06
26059 H 36.52823794179318 90.64138436964396 59.94996529087689 H 0.0 **** 0.06
26060 H 34.88088492260319 91.17415191153935 60.36371681709625 H 0.0 **** 0.06
26061 C 68.37846764570469 91.13531166998698 61.87075285800905 C 0.0 **** -0.24
26062 H 68.72691228857349 92.09193758943209 62.26128685986418 H 0.0 **** 0.06
26063 H 68.91358303634775 90.32467972652893 62.366782114233835 H 0.0 **** 0.06
26064 H 68.5646163958626 91.0910424717598 60.797779215598844 H 0.0 **** 0.06
26065 H 67.30964630206168 91.03452304839882 62.05898981142203 H 0.0 **** 0.06
26066 C 16.378664073822335 65.07508174702633 99.424644967067 C 0.0 **** -0.24
26067 H 15.536267392286078 64.92760650312891 100.10046036560067 H 0.0 **** 0.06
26068 H 17.09529025458832 64.26312419280856 99.55403778905188 H 0.0 **** 0.06
26069 H 16.86287276505894 66.02595326257853 99.64841696662387 H 0.0 **** 0.06
26070 H 16.021231621202134 65.0825539694768 98.39476885909056 H 0.0 **** 0.06
26071 C 58.180646938773634 108.26682425272546 27.728494890480533 C 0.0 **** -0.24
26072 H 58.87124002448712 107.62077955516497 27.187527294605907 H 0.0 **** 0.06
26073 H 58.538842351261906 109.29570326445 27.688362377574975 H 0.0 **** 0.06
26074 H 58.11989488508283 107.94394190472602 28.76758233619912 H 0.0 **** 0.06
26075 H 57.193011975467755 108.20712454990539 27.271388027622024 H 0.0 **** 0.06
26076 C 53.75459675835133 70.7277054461334 75.8392674514873 C 0.0 **** -0.24
26077 H 54.13144629578879 69.70483757155012 75.83268572703435 H 0.0 **** 0.06
26078 H 52.99450300551536 70.82945273759526 76.61385930784112 H 0.0 **** 0.06
26079 H 53.31893965974772 70.9603827512478 74.86837577709548 H 0.0 **** 0.06
26080 H 54.57538940035196 71.41564967934482 76.04323256468908 H 0.0 **** 0.06
26081 C 67.39156076388988 105.41269548217457 37.424537728210055 C 0.0 **** -0.24
26082 H 67.85535113496104 104.81569701773827 36.63940914981522 H 0.0 **** 0.06
26083 H 66.31170465814486 105.44023652658564 37.26913174192862 H 0.0 **** 0.06
26084 H 67.78904664979603 106.42641124805564 37.392353870270895 H 0.0 **** 0.06
26085 H 67.60764742530725 104.96683042917456 38.39546639897395 H 0.0 **** 0.06
26086 C 78.74740420794947 23.91060645477745 22.350908526252837 C 0.0 **** -0.24
26087 H 78.43271964945302 24.947830155770873 22.468093084133095 H 0.0 **** 0.06
26088 H 79.41568037442696 23.63857551472006 23.167337731053358 H 0.0 **** 0.06
26089 H 79.26781053446766 23.794764968266236 21.40038416925996 H 0.0 **** 0.06
26090 H 77.87100634347314 23.261669411887 22.367556252362174 H 0.0 **** 0.06
26091 C 48.86603378212229 83.48535696967272 10.975281065041969 C 0.0 **** -0.24
26092 H 48.44382575557367 82.49515879881952 10.802296766506544 H 0.0 **** 0.06
26093 H 49.19570229451054 83.56292040352298 12.011388280302526 H 0.0 **** 0.06
26094 H 48.108334688216814 84.2429148852762 10.776588789382146 H 0.0 **** 0.06
26095 H 49.71619649775863 83.63802182837227 10.310429677469244 H 0.0 **** 0.06
26096 C 81.0211760049329 13.425846606717045 87.82581201419856 C 0.0 **** -0.24
26097 H 80.20895950345971 12.783606401965073 87.48547330456839 H 0.0 **** 0.06
26098 H 80.85926896026069 13.695340743893723 88.86933372895504 H 0.0 **** 0.06
26099 H 81.04876408700562 14.329480575166372 87.21634736660312 H 0.0 **** 0.06
26100 H 81.96848212146341 12.894189051736447 87.7301407050206 H 0.0 **** 0.06
26101 C 110.94645618037981 39.45956433608284 57.91748103003255 C 0.0 **** -0.24
26102 H 111.58099913328573 38.604240326835004 57.68300562884042 H 0.0 **** 0.06
26103 H 111.54528285676054 40.370114120459924 57.90538740727044 H 0.0 **** 0.06
26104 H 110.50748390806734 39.32520572689216 58.90657644175326 H 0.0 **** 0.06
26105 H 110.1521655958727 39.535889994119934 57.17462474701455 H 0.0 **** 0.06
26106 C 58.83335782979558 85.25036138654221 87.87365167660096 C 0.0 **** -0.24
26107 H 59.275745081092076 86.05194921478022 87.282441879857 H 0.0 **** 0.06
26108 H 57.92283588774429 84.899717793408 87.38706512540318 H 0.0 **** 0.06
26109 H 58.592690065854974 85.623874198903 88.86939151416726 H 0.0 **** 0.06
26110 H 59.54255610742691 84.42720751743212 87.9567783393274 H 0.0 **** 0.06
26111 C 115.11386329605313 30.03335087404207 81.66471706556828 C 0.0 **** -0.24
26112 H 114.91844597330132 30.788380732649095 82.42701859746612 H 0.0 **** 0.06
26113 H 115.25715173167245 30.52057097294361 80.69978151220934 H 0.0 **** 0.06
26114 H 114.26635443219774 29.35084764246683 81.604645361097 H 0.0 **** 0.06
26115 H 116.01270791760064 29.47512107290482 81.9276874809972 H 0.0 **** 0.06
26116 C 87.72682581823787 98.10603891970254 102.84923086527832 C 0.0 **** -0.24
26117 H 88.0659943566533 98.0344565730851 103.88259441863147 H 0.0 **** 0.06
26118 H 86.73489806004801 98.55850488983265 102.82327881525427 H 0.0 **** 0.06
26119 H 87.68328223970636 97.10902365476198 102.41207182618712 H 0.0 **** 0.06
26120 H 88.42316562752762 98.72231943015356 102.27996659472572 H 0.0 **** 0.06
26121 C 6.481992881203723 118.2757236399718 5.372931616840765 C 0.0 **** -0.24
26122 H 6.188898611016839 117.88418122410577 4.398680175694498 H 0.0 **** 0.06
26123 H 5.65789734836585 118.84933467237848 5.796558194592906 H 0.0 **** 0.06
26124 H 7.3527551355869605 118.92121122775148 5.257925356643206 H 0.0 **** 0.06
26125 H 6.728916614823788 117.44814751779361 6.037694718368128 H 0.0 **** 0.06
26126 C 51.06534016063512 110.73143272190816 63.16970031370232 C 0.0 **** -0.24
26127 H 51.97937161422493 111.15339682012979 62.75236789731605 H 0.0 **** 0.06
26128 H 50.211850404273974 111.04896373206215 62.570032982896066 H 0.0 **** 0.06
26129 H 50.93963545558418 111.07980645290498 64.19468256697743 H 0.0 **** 0.06
26130 H 51.13067439097722 109.64264795450805 63.16065391109592 H 0.0 **** 0.06
26131 C 47.168642163201525 4.4725829649720765 11.710659993326601 C 0.0 **** -0.24
26132 H 47.880475921931634 3.648784851728351 11.665661157737361 H 0.0 **** 0.06
26133 H 46.954642517776335 4.7115183290787 12.752942910458842 H 0.0 **** 0.06
26134 H 46.24555907133549 4.181787720977155 11.208157891545056 H 0.0 **** 0.06
26135 H 47.59271734077984 5.346394248047261 11.21633860667248 H 0.0 **** 0.06
26136 C 40.43073583593201 16.913210408337562 55.381360766364594 C 0.0 **** -0.24
26137 H 40.56514216275585 15.867073646289185 55.655394253277336 H 0.0 **** 0.06
26138 H 41.0260967838816 17.135237024138718 54.494800453344965 H 0.0 **** 0.06
26139 H 40.75498220261164 17.548915276576594 56.20505680356297 H 0.0 **** 0.06
26140 H 39.37827110388139 17.100981069919953 55.16974622693402 H 0.0 **** 0.06
26141 C 65.50046183526052 30.052286590431663 81.86363710955726 C 0.0 **** -0.24
26142 H 65.13792961978561 30.48072797209872 82.798447244768 H 0.0 **** 0.06
26143 H 64.65640278414969 29.865670082193446 81.1997830908303 H 0.0 **** 0.06
26144 H 66.01461743636878 29.113320785399395 82.07093123790577 H 0.0 **** 0.06
26145 H 66.19092176697484 30.748101923801244 81.38889974381033 H 0.0 **** 0.06
26146 C 39.55947326993564 104.56297177703757 55.071724014303925 C 0.0 **** -0.24
26147 H 38.60213539902897 104.83572111125102 54.62919210581322 H 0.0 **** 0.06
26148 H 39.44610857690118 103.6419653917037 55.644879614591275 H 0.0 **** 0.06
26149 H 39.89450934609531 105.36333360327495 55.732629024929224 H 0.0 **** 0.06
26150 H 40.29511465494848 104.41237239643874 54.28184862673041 H 0.0 **** 0.06
26151 C 33.73981435501048 49.6051108787258 54.52007149031033 C 0.0 **** -0.24
26152 H 34.20672049959913 49.692184407247765 55.50065007682173 H 0.0 **** 0.06
26153 H 32.75404025528013 50.07159217761078 54.545157373328436 H 0.0 **** 0.06
26154 H 33.63641031526274 48.55110934705525 54.25907907615925 H 0.0 **** 0.06
26155 H 34.35942389700652 50.104571957331785 53.77636918421814 H 0.0 **** 0.06
26156 C 101.73392110485307 37.465803814034246 76.19417078452415 C 0.0 **** -0.24
26157 H 102.48305910299354 38.22417337828335 76.42388254167545 H 0.0 **** 0.06
26158 H 102.08275408307497 36.494040201133174 76.54404736549654 H 0.0 **** 0.06
26159 H 101.57451481029659 37.42830075801194 75.11624742902058 H 0.0 **** 0.06
26160 H 100.79729775288331 37.7176981703154 76.69139356135003 H 0.0 **** 0.06
26161 C 13.97345882036592 81.63838296462606 86.29774037166567 C 0.0 **** -0.24
26162 H 13.757098432130931 82.67783482791347 86.0521644263577 H 0.0 **** 0.06
26163 H 15.01201155782249 81.55026405516003 86.61744627688597 H 0.0 **** 0.06
26164 H 13.809872843607309 81.0160900801452 85.41767117641791 H 0.0 **** 0.06
26165 H 13.31552342704282 81.31101237089317 87.10149715272723 H 0.0 **** 0.06
26166 C 6.088817757607741 16.363957134229167 92.26998674295064 C 0.0 **** -0.24
26167 H 5.701752891162467 16.575288793281715 93.26767977783871 H 0.0 **** 0.06
26168 H 7.122959295179118 16.702949022797583 92.20300620260818 H 0.0 **** 0.06
26169 H 5.485734815017471 16.887433612258718 91.52832921256217 H 0.0 **** 0.06
26170 H 6.044889256078033 15.29105305826539 92.08297953668657 H 0.0 **** 0.06
26171 C 110.0182122284497 65.10352628313842 17.848233938603155 C 0.0 **** -0.24
26172 H 109.00504644372043 64.71278744698449 17.745994447627705 H 0.0 **** 0.06
26173 H 110.30586665303645 65.61096240980322 16.92673616092988 H 0.0 **** 0.06
26174 H 110.70668555176502 64.28003370068453 18.03902189501215 H 0.0 **** 0.06
26175 H 110.05318011523596 65.80775206470207 18.678710784319545 H 0.0 **** 0.06
26176 C 58.07824941227136 63.93876317863677 115.7733824997959 C 0.0 **** -0.24
26177 H 58.186038963053306 62.86373305809288 115.9110673367323 H 0.0 **** 0.06
26178 H 57.2088183609244 64.13976425964182 115.1470289155198 H 0.0 **** 0.06
26179 H 58.973012667186254 64.3347055716986 115.29225990412975 H 0.0 **** 0.06
26180 H 57.946066239882555 64.417370710934 116.74409463538508 H 0.0 **** 0.06
26181 C 38.502233712477164 105.03414792279679 25.461936196751864 C 0.0 **** -0.24
26182 H 37.4502060765181 105.06134129935333 25.177608996521997 H 0.0 **** 0.06
26183 H 38.630578538031784 104.37303303247054 26.319715509092916 H 0.0 **** 0.06
26184 H 38.83339630360632 106.03919948131082 25.725219943901138 H 0.0 **** 0.06
26185 H 39.095749156046566 104.66393905597337 24.62560168143216 H 0.0 **** 0.06
26186 C 88.12315905871185 2.530382523244043 67.03438990656429 C 0.0 **** -0.24
26187 H 88.1032759493655 2.446185587464271 68.12133983940535 H 0.0 **** 0.06
26188 H 87.17838674363836 2.9496852457176033 66.68565335629728 H 0.0 **** 0.06
26189 H 88.26683812195955 1.5428943248998337 66.59619595878098 H 0.0 **** 0.06
26190 H 88.94307820728415 3.1834067652920055 66.73558312627284 H 0.0 **** 0.06
26191 C 95.41440349630861 63.62742524003895 9.948741769215005 C 0.0 **** -0.24
26192 H 95.67442347863502 63.156572274275554 8.999997999674761 H 0.0 **** 0.06
26193 H 94.39153408782695 63.361399929852176 10.217092904603902 H 0.0 **** 0.06
26194 H 95.49459832582193 64.70970647058263 9.851070638511104 H 0.0 **** 0.06
26195 H 96.09663250521518 63.280652153983944 10.724820095527335 H 0.0 **** 0.06
26196 C 80.18554384704612 72.11007257364528 53.62845520244426 C 0.0 **** -0.24
26197 H 80.0902372820895 72.2913384653011 52.558011889559936 H 0.0 **** 0.06
26198 H 79.8978397652483 73.0079366024465 54.176085697466505 H 0.0 **** 0.06
26199 H 81.21894140072465 71.85557910386618 53.862534467034436 H 0.0 **** 0.06
26200 H 79.53397218378069 71.28434343019396 53.915638701618434 H 0.0 **** 0.06
26201 C 92.44652217684569 53.702664134310496 115.05025363365331 C 0.0 **** -0.24
26202 H 91.79167862228547 52.99956832310913 115.56611004488059 H 0.0 **** 0.06
26203 H 92.20682872884407 54.718723988912956 115.36336699729736 H 0.0 **** 0.06
26204 H 92.30178121396949 53.60985157002355 113.97411125269207 H 0.0 **** 0.06
26205 H 93.48403915848058 53.48000994401934 115.29822370973781 H 0.0 **** 0.06
26206 C 51.341180352253645 13.775812985266043 45.191768487855406 C 0.0 **** -0.24
26207 H 50.35096923664997 13.770117793242719 45.6470410042821 H 0.0 **** 0.06
26208 H 51.953214538535036 14.54443387533098 45.664130292057614 H 0.0 **** 0.06
26209 H 51.2492531869278 13.986484671223536 44.126730296123334 H 0.0 **** 0.06
26210 H 51.81028799464224 12.800920679838782 45.33069897422786 H 0.0 **** 0.06
26211 C 92.21438531689628 8.126368138945935 64.56286976307291 C 0.0 **** -0.24
26212 H 91.6475745939679 7.856005907536513 63.672213594701475 H 0.0 **** 0.06
26213 H 92.0909362264218 9.190661503594725 64.76359229260552 H 0.0 **** 0.06
26214 H 93.27041529970685 7.906692055524644 64.40099711503885 H 0.0 **** 0.06
26215 H 91.84972779790823 7.5503112841660425 65.41344484757644 H 0.0 **** 0.06
26216 C 5.290837977668232 78.1940342334762 34.55226335077961 C 0.0 **** -0.24
26217 H 6.29291482983983 78.08095241777147 34.13720056021427 H 0.0 **** 0.06
26218 H 4.5594093620512695 78.17418951226006 33.7451940496133 H 0.0 **** 0.06
26219 H 5.222935440045703 79.14449826112684 35.08211425788761 H 0.0 **** 0.06
26220 H 5.091408148037857 77.37647560193096 35.24461670174729 H 0.0 **** 0.06
26221 C 10.778381464231416 42.90044315347399 14.357543632515302 C 0.0 **** -0.24
26222 H 9.929936059834944 42.3164175811082 14.713876461531754 H 0.0 **** 0.06
26223 H 10.649591785078655 43.11856617044205 13.297448292804404 H 0.0 **** 0.06
26224 H 11.697361115907825 42.33229599634683 14.50300427532477 H 0.0 **** 0.06
26225 H 10.836168593964828 43.83474761995143 14.91669158082675 H 0.0 **** 0.06
26226 C 79.81414001847725 30.658265135796682 55.057805121332414 C 0.0 **** -0.24
26227 H 79.89943524074931 29.678278535406918 54.58817807466182 H 0.0 **** 0.06
26228 H 79.02530860295826 31.228350119301624 54.568174021845984 H 0.0 **** 0.06
26229 H 80.76069055632763 31.19008176271771 54.96101810309383 H 0.0 **** 0.06
26230 H 79.57335813616282 30.535341928520438 56.113848942347936 H 0.0 **** 0.06
26231 C 76.94397196620469 99.41324528382415 113.35241107611142 C 0.0 **** -0.24
26232 H 77.84503233832788 98.88658592586077 113.03998408509511 H 0.0 **** 0.06
26233 H 76.86646632535621 100.35498887133636 112.80919891466783 H 0.0 **** 0.06
26234 H 76.99400036458707 99.61414185121777 114.42302181509177 H 0.0 **** 0.06
26235 H 76.07097458456366 98.79689174174453 113.13956510788142 H 0.0 **** 0.06
26236 C 0.7172575034956026 97.48494609707137 88.24626832168835 C 0.0 **** -0.24
26237 H -0.09576817332970222 97.02041805144717 88.80497089215342 H 0.0 **** 0.06
26238 H 0.3442737525953987 98.36951536172893 87.7303420801284 H 0.0 **** 0.06
26239 H 1.1076113502084013 96.776226760275 87.51704047838894 H 0.0 **** 0.06
26240 H 1.511747917506824 97.77368147353585 88.93487377634412 H 0.0 **** 0.06
26241 C 94.70275604112709 111.18225252317151 23.24409643971495 C 0.0 **** -0.24
26242 H 93.82575084419287 111.72839162299431 22.894032666039863 H 0.0 **** 0.06
26243 H 95.54682741509276 111.86730827311422 23.327826621552703 H 0.0 **** 0.06
26244 H 94.94509456070958 110.39168189743319 22.534898572932264 H 0.0 **** 0.06
26245 H 94.49142901102522 110.7436854261731 24.219357101703707 H 0.0 **** 0.06
26246 C 72.65122622340226 32.4543530456874 101.9910604390115 C 0.0 **** -0.24
26247 H 72.33276539668128 33.34999665491108 102.52434534372463 H 0.0 **** 0.06
26248 H 72.60533435653963 32.63644588640143 100.91629495911602 H 0.0 **** 0.06
26249 H 71.99239211703866 31.625210598887236 102.24805647442545 H 0.0 **** 0.06
26250 H 73.67437429838998 32.207511232820934 102.27383363983586 H 0.0 **** 0.06
26251 C 34.03457303305123 99.5765117387773 108.74471862676003 C 0.0 **** -0.24
26252 H 33.49604950026111 99.19347477387072 107.87829285537478 H 0.0 **** 0.06
26253 H 34.13348693432596 98.78681297018551 109.4898679383949 H 0.0 **** 0.06
26254 H 33.48409753690555 100.41421413741276 109.17311330424849 H 0.0 **** 0.06
26255 H 35.0246251989318 99.91207830185036 108.43595275709521 H 0.0 **** 0.06
26256 C 26.580978247532016 30.78151113536591 29.771564686970578 C 0.0 **** -0.24
26257 H 26.302670638451332 29.920474209685246 29.16428235642806 H 0.0 **** 0.06
26258 H 26.637121372742854 30.485163664740504 30.818956060582934 H 0.0 **** 0.06
26259 H 25.831837774139586 31.56548129851209 29.654257439719487 H 0.0 **** 0.06
26260 H 27.551335656855997 31.155898913242467 29.446281997753033 H 0.0 **** 0.06
26261 C 42.29147194621169 65.31225720469058 107.2430482463555 C 0.0 **** -0.24
26262 H 42.31681239637797 64.81306466196978 106.27445171995649 H 0.0 **** 0.06
26263 H 43.202648472355946 65.08052413671919 107.79512046009285 H 0.0 **** 0.06
26264 H 41.42614976615451 64.96555918556288 107.80776903144019 H 0.0 **** 0.06
26265 H 42.2205903904634 66.38947794019015 107.09399176514742 H 0.0 **** 0.06
26266 C 54.06398014350441 82.44076725309375 55.42009749775823 C 0.0 **** -0.24
26267 H 53.843264351968315 81.45653899672811 55.83268666569307 H 0.0 **** 0.06
26268 H 54.924765210830856 82.86686839876606 55.936549351369955 H 0.0 **** 0.06
26269 H 53.20063917407586 83.09226364131294 55.553489275457615 H 0.0 **** 0.06
26270 H 54.28858268853003 82.34660079474233 54.35689430056899 H 0.0 **** 0.06
26271 C 49.3565446391483 3.9667928785971327 1.1085273602328556 C 0.0 **** -0.24
26272 H 49.332196476259355 2.938034007545781 0.7488539901628997 H 0.0 **** 0.06
26273 H 48.47252414462831 4.1602608172154305 1.716438960091267 H 0.0 **** 0.06
26274 H 49.36980984593431 4.648587389072418 0.25867866792671634 H 0.0 **** 0.06
26275 H 50.25223127491543 4.119959545600253 1.7108802615127559 H 0.0 **** 0.06
26276 C 16.241184807463696 74.37117946036565 113.41407158841272 C 0.0 **** -0.24
26277 H 15.816809393197929 75.35843933130252 113.23206605959308 H 0.0 **** 0.06
26278 H 15.495884090729874 73.73935478427691 113.8970860626143 H 0.0 **** 0.06
26279 H 17.11339085354814 74.46453051329135 114.06081631540121 H 0.0 **** 0.06
26280 H 16.537469139434535 73.92250986787764 112.46555601144499 H 0.0 **** 0.06
26281 C 60.43145673272368 99.46001870887807 76.26601027189744 C 0.0 **** -0.24
26282 H 60.49974820093163 98.45073606026355 76.67098969629711 H 0.0 **** 0.06
26283 H 61.124530709394755 99.56404475595025 75.43085540837694 H 0.0 **** 0.06
26284 H 60.68626018326518 100.18102240479445 77.04173467437383 H 0.0 **** 0.06
26285 H 59.41452086590892 99.64382391526343 75.91759567644792 H 0.0 **** 0.06
26286 C 101.0294201880771 53.649645952637854 0.7469100390330947 C 0.0 **** -0.24
26287 H 100.56658922491147 53.961094131346016 -0.19008844749276754 H 0.0 **** 0.06
26288 H 101.61141222925903 54.47583660271948 1.1556126901860484 H 0.0 **** 0.06
26289 H 101.68570123094639 52.79913264876717 0.5619995425299571 H 0.0 **** 0.06
26290 H 100.2543480691163 53.36340232778892 1.4569405253551366 H 0.0 **** 0.06
26291 C 33.70510090771106 42.08252314400242 44.5925754803643 C 0.0 **** -0.24
26292 H 32.971663821090665 42.404581459659084 43.852681495658175 H 0.0 **** 0.06
26293 H 34.46528617216558 42.85463378085838 44.7093148128092 H 0.0 **** 0.06
26294 H 34.17516071228575 41.15722011727774 44.259787791871275 H 0.0 **** 0.06
26295 H 33.20679959281549 41.91463005323962 45.54761019546228 H 0.0 **** 0.06
26296 C 65.43745593004343 49.21978793768045 64.43307005866828 C 0.0 **** -0.24
26297 H 65.20320878849029 49.39375846797394 65.48388363554031 H 0.0 **** 0.06
26298 H 64.513723750639 49.060283679413786 63.87686791875557 H 0.0 **** 0.06
26299 H 66.0723038193953 48.33926934032171 64.34481128529711 H 0.0 **** 0.06
26300 H 65.96059194211037 50.087179979095254 64.03021109793696 H 0.0 **** 0.06
26301 C 68.42673940702676 3.4115436996821114 89.6329842352369 C 0.0 **** -0.24
26302 H 68.19064780457316 2.3508432792311673 89.54727573789387 H 0.0 **** 0.06
26303 H 68.08899995706943 3.931982813975152 88.7366975788675 H 0.0 **** 0.06
26304 H 69.50423477491961 3.5358904240598825 89.74150244230032 H 0.0 **** 0.06
26305 H 67.92381405138303 3.826291734309539 90.50615585711643 H 0.0 **** 0.06
26306 C 68.92071299991557 35.53072171142284 66.61333983728662 C 0.0 **** -0.24
26307 H 68.91505121496064 36.5292294781697 66.17576495489294 H 0.0 **** 0.06
26308 H 68.91806953798516 35.61079828594233 67.7005805408574 H 0.0 **** 0.06
26309 H 69.81611026170947 34.998735488563035 66.29012932327049 H 0.0 **** 0.06
26310 H 68.03594573952455 34.98568864466082 66.28581370950215 H 0.0 **** 0.06
26311 C 71.44703278155785 58.57730031133568 78.28282049347521 C 0.0 **** -0.24
26312 H 72.28666829148608 57.893691174040185 78.16138628992232 H 0.0 **** 0.06
26313 H 71.5926063649091 59.17516177661932 79.18282527167139 H 0.0 **** 0.06
26314 H 70.5228408982127 58.00476967571737 78.37125521122002 H 0.0 **** 0.06
26315 H 71.3849167992754 59.234896971690205 77.41524233684896 H 0.0 **** 0.06
26316 C 45.52145480158822 45.881448144993676 52.11337885387118 C 0.0 **** -0.24
26317 H 45.958206172534545 45.80573829321608 51.11824682765109 H 0.0 **** 0.06
26318 H 44.435585740124196 45.935283273275985 52.03028386547234 H 0.0 **** 0.06
26319 H 45.894231749404156 46.778746937713436 52.60670000297898 H 0.0 **** 0.06
26320 H 45.79797439986265 45.003863364498 52.69883210432741 H 0.0 **** 0.06
26321 C 48.160610745891375 116.56820589939753 72.65636625381939 C 0.0 **** -0.24
26322 H 47.21604235649315 117.06329501168327 72.43133761217837 H 0.0 **** 0.06
26323 H 48.023917515727305 115.88890295136916 73.49807170367129 H 0.0 **** 0.06
26324 H 48.91049664702717 117.3168753759225 72.9112303375104 H 0.0 **** 0.06
26325 H 48.49161332818858 116.00500638991932 71.78429336502609 H 0.0 **** 0.06
26326 C 97.44315656459037 97.04953428818567 30.744599157311796 C 0.0 **** -0.24
26327 H 97.12384129756629 98.08006162660939 30.58893689873986 H 0.0 **** 0.06
26328 H 96.73104626468182 96.37270503104881 30.27218444267666 H 0.0 **** 0.06
26329 H 97.48764285902644 96.84059432759292 31.813809461794563 H 0.0 **** 0.06
26330 H 98.42972433686691 96.90452097912438 30.30480634220575 H 0.0 **** 0.06
26331 C 29.418269038744285 9.748439334007571 73.96866228611631 C 0.0 **** -0.24
26332 H 29.363360734469353 8.891232222221674 74.64109943961984 H 0.0 **** 0.06
26333 H 29.7838108472491 9.421442285434892 72.9947348026374 H 0.0 **** 0.06
26334 H 30.09935521223784 10.491273795216642 74.38220439343885 H 0.0 **** 0.06
26335 H 28.426344097170073 10.185711369179216 73.85620061589705 H 0.0 **** 0.06
26336 C 112.04896908932997 96.01556273632528 33.421618629809984 C 0.0 **** -0.24
26337 H 111.31773168083926 95.27610916295112 33.748200683175725 H 0.0 **** 0.06
26338 H 112.56008938263831 96.42819094518154 34.29277975864986 H 0.0 **** 0.06
26339 H 111.54038980120993 96.81655306099142 32.885841503143496 H 0.0 **** 0.06
26340 H 112.77635353609944 95.54171068052656 32.76414502896813 H 0.0 **** 0.06
26341 C 64.06725868211305 62.36800167601257 11.39750191307823 C 0.0 **** -0.24
26342 H 64.21540781854824 62.05798024832143 10.362382016240133 H 0.0 **** 0.06
26343 H 64.02851489090736 63.45612671902501 11.448190942502606 H 0.0 **** 0.06
26344 H 64.89556347184856 62.00451415447458 12.007008812446799 H 0.0 **** 0.06
26345 H 63.13169292236495 61.952157053950714 11.770725028330418 H 0.0 **** 0.06
26346 C 9.010939967999505 19.577067039383586 115.10439536137868 C 0.0 **** -0.24
26347 H 8.906902052660811 18.959000613550423 114.21318017096122 H 0.0 **** 0.06
26348 H 8.43929787336836 19.136393145451795 115.92149476436157 H 0.0 **** 0.06
26349 H 8.63416268745901 20.579536639619345 114.896642465451 H 0.0 **** 0.06
26350 H 10.062595224288572 19.635330050389417 115.38508596701442 H 0.0 **** 0.06
26351 C 101.47322363624122 62.409633384096054 22.326473685954298 C 0.0 **** -0.24
26352 H 101.70516827991861 61.40399701608442 22.675788285564664 H 0.0 **** 0.06
26353 H 100.40003131339122 62.582913185779915 22.405232241060347 H 0.0 **** 0.06
26354 H 101.7838565783118 62.514757507923804 21.286862856507355 H 0.0 **** 0.06
26355 H 102.00461161986513 63.13768884557018 22.94018508581331 H 0.0 **** 0.06
26356 C 61.24589743313748 48.30713692148885 79.16714669411255 C 0.0 **** -0.24
26357 H 61.365951923448925 47.434006479558064 78.52697981664369 H 0.0 **** 0.06
26358 H 60.265968664918695 48.275910540595675 79.64406925178233 H 0.0 **** 0.06
26359 H 61.32776753927062 49.21235326634158 78.56434299032585 H 0.0 **** 0.06
26360 H 62.02316724681564 48.307821891811315 79.93144097515335 H 0.0 **** 0.06
26361 C 58.27842965063598 55.177248643906275 41.27475207086222 C 0.0 **** -0.24
26362 H 58.27349487997696 54.99370668081935 42.349455099588795 H 0.0 **** 0.06
26363 H 59.198105446663654 54.78327324996889 40.843155799858096 H 0.0 **** 0.06
26364 H 58.21840244986756 56.249345580805446 41.08883964408 H 0.0 **** 0.06
26365 H 57.421309931692115 54.68158722169357 40.818986661399606 H 0.0 **** 0.06
26366 C 55.66728420948007 21.310907722247833 51.02703022390875 C 0.0 **** -0.24
26367 H 56.55531688761013 21.51516882910306 51.62558094058022 H 0.0 **** 0.06
26368 H 55.07746851064144 22.22264925073904 50.930467198210295 H 0.0 **** 0.06
26369 H 55.0697865832733 20.54070225561358 51.514747041532644 H 0.0 **** 0.06
26370 H 55.96760439539918 20.96606404330828 50.03722406379944 H 0.0 **** 0.06
26371 C 22.983419453308798 93.13559879941675 6.803071373450848 C 0.0 **** -0.24
26372 H 23.52659389958645 92.54140525202382 6.068856102463542 H 0.0 **** 0.06
26373 H 22.606618913274055 92.4832659384706 7.591650370898321 H 0.0 **** 0.06
26374 H 22.146971160290573 93.63786544884329 6.316413307319635 H 0.0 **** 0.06
26375 H 23.652701704918492 93.87986340151696 7.234755338662012 H 0.0 **** 0.06
26376 C 3.1908303255585224 118.60891132961714 88.41137935849892 C 0.0 **** -0.24
26377 H 3.603856140104938 119.59804447944373 88.60892644561682 H 0.0 **** 0.06
26378 H 2.1106491519353483 118.63021518834671 88.56032708337844 H 0.0 **** 0.06
26379 H 3.637594085266244 117.88573344807537 89.09371319721757 H 0.0 **** 0.06
26380 H 3.4102636497859464 118.32182126296406 87.38278132847978 H 0.0 **** 0.06
26381 C 75.88198010890164 107.28007289690245 64.26759942805256 C 0.0 **** -0.24
26382 H 76.8510631124621 107.59650511186987 63.88206039966139 H 0.0 **** 0.06
26383 H 75.103128481397 107.93149507290775 63.87217457497008 H 0.0 **** 0.06
26384 H 75.88872091475162 107.33876009963402 65.3561585506443 H 0.0 **** 0.06
26385 H 75.68801980219484 106.2528383358102 63.960674253772446 H 0.0 **** 0.06
26386 C 111.30319363321206 57.0511674617698 106.36347165002346 C 0.0 **** -0.24
26387 H 111.6974488593861 56.80371659095129 105.37833541713493 H 0.0 **** 0.06
26388 H 110.82465265005868 58.030452784505435 106.32823785797197 H 0.0 **** 0.06
26389 H 112.11828065295731 57.070335016549244 107.08616401945747 H 0.0 **** 0.06
26390 H 110.57112722060396 56.299796320056295 106.66063622431506 H 0.0 **** 0.06
26391 C 52.85272617303605 16.436455465370017 3.761591009630422 C 0.0 **** -0.24
26392 H 53.28556470402998 16.94682605500617 4.623319140327254 H 0.0 **** 0.06
26393 H 53.54503256993013 16.49358092811312 2.921591541556097 H 0.0 **** 0.06
26394 H 51.91194197955997 16.916066389418006 3.491665049761366 H 0.0 **** 0.06
26395 H 52.66941354520122 15.392258927061192 4.012514442980745 H 0.0 **** 0.06
26396 C 48.88391860961085 14.742023630165335 61.90134893741711 C 0.0 **** -0.24
26397 H 48.39184137537438 13.81813678040919 62.20341778102829 H 0.0 **** 0.06
26398 H 49.6570336283879 14.995193851028347 62.62737484869453 H 0.0 **** 0.06
26399 H 48.15019543757179 15.546830582811992 61.857318957204626 H 0.0 **** 0.06
26400 H 49.337364988082776 14.609460119932862 60.91904202637642 H 0.0 **** 0.06
26401 C 69.14470646447114 29.577915065477384 62.61892023833973 C 0.0 **** -0.24
26402 H 69.51480143707067 30.601194072714804 62.553419330403635 H 0.0 **** 0.06
26403 H 69.98861407201906 28.890382926565678 62.67433745834192 H 0.0 **** 0.06
26404 H 68.54843272832397 29.350757387678726 61.73501718412026 H 0.0 **** 0.06
26405 H 68.5283169992394 29.470559804276007 63.510742736653235 H 0.0 **** 0.06
26406 C 117.63293792175398 75.389154381993 88.8028931483696 C 0.0 **** -0.24
26407 H 117.77218150110443 74.38167577277255 89.19626028925308 H 0.0 **** 0.06
26408 H 117.91696674105629 76.11731971405351 89.56252361013418 H 0.0 **** 0.06
26409 H 116.58603950780929 75.53285428913398 88.53517196959916 H 0.0 **** 0.06
26410 H 118.25616411360117 75.52329457725304 87.91953251380505 H 0.0 **** 0.06
26411 C 63.91704930304468 14.23215643605863 15.314655714445735 C 0.0 **** -0.24
26412 H 63.0818639721073 13.882113048953556 15.920825347847199 H 0.0 **** 0.06
26413 H 63.870765945273035 13.765054265171187 14.330396073901227 H 0.0 **** 0.06
26414 H 64.85531714862441 13.965112653082599 15.800736599953979 H 0.0 **** 0.06
26415 H 63.85862626294946 15.314839240972304 15.206358821081409 H 0.0 **** 0.06
26416 C 50.69439075443154 109.19328101086992 38.22532776823901 C 0.0 **** -0.24
26417 H 51.51592740128933 109.28025488409787 37.514303402298964 H 0.0 **** 0.06
26418 H 49.890418139928954 108.60589754275401 37.78009147705697 H 0.0 **** 0.06
26419 H 50.32326637150362 110.18745023195747 38.47468861569078 H 0.0 **** 0.06
26420 H 51.047392990788296 108.70013750347431 39.13015171689892 H 0.0 **** 0.06
26421 C 41.51057488091295 99.69200489963723 12.240059762773512 C 0.0 **** -0.24
26422 H 42.27482676029905 99.01395708394267 11.86086882775976 H 0.0 **** 0.06
26423 H 41.525475279520705 100.61622798122656 11.662415199314154 H 0.0 **** 0.06
26424 H 41.70998078281431 99.91425239458172 13.28786453703296 H 0.0 **** 0.06
26425 H 40.53073867174844 99.22150184153722 12.148892103912829 H 0.0 **** 0.06
26426 C 25.5178519758974 91.24669795369363 53.29469619893446 C 0.0 **** -0.24
26427 H 25.78751604801093 90.88154875470718 52.30380422237852 H 0.0 **** 0.06
26428 H 26.25889769689917 90.9098286726857 54.01967544227222 H 0.0 **** 0.06
26429 H 24.537218735851155 90.85750413747968 53.570090899529106 H 0.0 **** 0.06
26430 H 25.486842674322446 92.33590992899252 53.28557338232639 H 0.0 **** 0.06
26431 C 42.783258799641004 109.84111415967493 51.85399049322524 C 0.0 **** -0.24
26432 H 43.79482617080791 109.57797323767056 51.543453977994545 H 0.0 **** 0.06
26433 H 42.38183625428647 110.59827342326983 51.18067085105446 H 0.0 **** 0.06
26434 H 42.805985009114934 110.23332517342791 52.870622971917555 H 0.0 **** 0.06
26435 H 42.15148749417142 108.95378788165598 51.82198067741365 H 0.0 **** 0.06
26436 C 15.823928981288617 79.13446783415279 95.51402996628869 C 0.0 **** -0.24
26437 H 15.227168005247933 78.22417813025251 95.44913303234097 H 0.0 **** 0.06
26438 H 15.334547791313653 79.8422949254805 96.18313790653573 H 0.0 **** 0.06
26439 H 15.919802007783687 79.57805990522786 94.52296084092916 H 0.0 **** 0.06
26440 H 16.813820271593002 78.89215573911653 95.90156537252238 H 0.0 **** 0.06
26441 C 73.55820292198104 66.51287990104188 85.36185078747437 C 0.0 **** -0.24
26442 H 72.55386267471141 66.1829719240196 85.62613457735873 H 0.0 **** 0.06
26443 H 73.76296261889871 66.25795455426893 84.32241244924 H 0.0 **** 0.06
26444 H 74.2839000901493 66.01759686645175 86.00788714510145 H 0.0 **** 0.06
26445 H 73.63248505660724 67.59231718344802 85.49419085597961 H 0.0 **** 0.06
26446 C 42.70616684450695 56.45212597221819 71.13813321905764 C 0.0 **** -0.24
26447 H 43.545834031280236 56.78088699531977 70.52632627635506 H 0.0 **** 0.06
26448 H 42.08824313485658 55.75935633006038 70.56567696658152 H 0.0 **** 0.06
26449 H 42.108375244415214 57.317239543659646 71.42843029887331 H 0.0 **** 0.06
26450 H 43.08091806478883 55.95247382787074 72.03100038718904 H 0.0 **** 0.06
26451 C 8.89911556332029 54.71621362760769 96.57369950233286 C 0.0 **** -0.24
26452 H 9.822993778749716 54.17662020163672 96.36359098002882 H 0.0 **** 0.06
26453 H 8.61915564354273 54.566228260412316 97.61585368247319 H 0.0 **** 0.06
26454 H 8.105438029678734 54.34377436926877 95.92525166308599 H 0.0 **** 0.06
26455 H 9.050556734064578 55.77969751983863 96.38709781407354 H 0.0 **** 0.06
26456 C 110.72673396542204 68.11636764000193 76.65572254898817 C 0.0 **** -0.24
26457 H 110.46362963970927 67.41201299160494 77.44511930271037 H 0.0 **** 0.06
26458 H 111.62527119202333 68.66244702207197 76.94123729616697 H 0.0 **** 0.06
26459 H 109.90592295702045 68.81915308637684 76.50876493480416 H 0.0 **** 0.06
26460 H 110.90921059322416 67.57212484911477 75.72964232745534 H 0.0 **** 0.06
26461 C 68.20943643524845 20.134715513459582 39.18786718023875 C 0.0 **** -0.24
26462 H 68.5989912954042 19.252249595499023 39.6962051887291 H 0.0 **** 0.06
26463 H 67.44762841448076 20.605136550488965 39.80918282621158 H 0.0 **** 0.06
26464 H 67.77043244007976 19.840569731475682 38.23475003341651 H 0.0 **** 0.06
26465 H 69.02150655109992 20.84029763276635 39.01231499353943 H 0.0 **** 0.06
26466 C 44.108076844400586 36.21042695643527 42.16831645678735 C 0.0 **** -0.24
26467 H 44.19976513731923 36.73676345939407 41.21817398432775 H 0.0 **** 0.06
26468 H 43.060680133617495 36.185739171898746 42.469808146164326 H 0.0 **** 0.06
26469 H 44.693710459261126 36.72821487569826 42.92826944095306 H 0.0 **** 0.06
26470 H 44.479211690370875 35.19182862370033 42.0552327264421 H 0.0 **** 0.06
26471 C 72.63179459134494 63.94950509416617 20.13198103819073 C 0.0 **** -0.24
26472 H 72.4294216766902 63.365096725895995 21.029813238723577 H 0.0 **** 0.06
26473 H 72.25919042089276 64.96460320533151 20.269168955632054 H 0.0 **** 0.06
26474 H 72.13237765778513 63.49048376256346 19.27920635028636 H 0.0 **** 0.06
26475 H 73.70665655815765 63.97739010963289 19.951876143022588 H 0.0 **** 0.06
26476 C 2.4273448284239123 35.63885055513106 69.25834579936117 C 0.0 **** -0.24
26477 H 1.6506217901841183 34.935131046468314 69.55893819695189 H 0.0 **** 0.06
26478 H 3.0986939877552118 35.81922498011198 70.09860052908303 H 0.0 **** 0.06
26479 H 1.967440914988373 36.57826753371177 68.95282549492546 H 0.0 **** 0.06
26480 H 2.9913810841411532 35.223094087759875 68.42455498641658 H 0.0 **** 0.06
26481 C 26.21309999528114 87.58295336242404 64.36799773211311 C 0.0 **** -0.24
26482 H 27.29644077277493 87.49013013300575 64.28392485941069 H 0.0 **** 0.06
26483 H 25.824913794081453 88.11054583167459 63.4961638664222 H 0.0 **** 0.06
26484 H 25.966013335586922 88.14155955288678 65.27069639020172 H 0.0 **** 0.06
26485 H 25.766949973848398 86.59063030795502 64.42166892799801 H 0.0 **** 0.06
26486 C 52.71426465363804 106.69176914574317 12.804687668239183 C 0.0 **** -0.24
26487 H 51.65451449082031 106.45852661574202 12.708256314967059 H 0.0 **** 0.06
26488 H 53.23719889114247 106.38537314577454 11.898676162173587 H 0.0 **** 0.06
26489 H 53.126903520486856 106.1599244996566 13.661575621997287 H 0.0 **** 0.06
26490 H 52.8382122182814 107.76544480928646 12.949867575155508 H 0.0 **** 0.06
26491 C 12.187796979940458 114.82518103862644 113.96682326504799 C 0.0 **** -0.24
26492 H 11.541785982054591 115.70030402558446 113.8918422144982 H 0.0 **** 0.06
26493 H 13.132985178895979 115.02677956407922 113.46269245236061 H 0.0 **** 0.06
26494 H 11.699457950095365 113.97233525451908 113.49643239533401 H 0.0 **** 0.06
26495 H 12.3760479671501 114.6022294071456 115.01747342485021 H 0.0 **** 0.06
26496 C 16.998841326929835 3.243551096213718 95.39670484288462 C 0.0 **** -0.24
26497 H 16.389862660117274 2.3418960710498684 95.32976620843527 H 0.0 **** 0.06
26498 H 17.401756982906193 3.334748044857747 96.40568734776213 H 0.0 **** 0.06
26499 H 16.38359153046497 4.114458932194685 95.17000059443507 H 0.0 **** 0.06
26500 H 17.818542180736017 3.181624186407589 94.68183418314288 H 0.0 **** 0.06
26501 C 30.624701933254528 47.692271721358864 104.83562989733156 C 0.0 **** -0.24
26502 H 30.583856855144973 46.60940076519054 104.95516553335997 H 0.0 **** 0.06
26503 H 31.39006648589651 48.100980239365825 105.49592533109438 H 0.0 **** 0.06
26504 H 29.656573631671506 48.12284642799109 105.09104636374715 H 0.0 **** 0.06
26505 H 30.869034518140438 47.934991662464355 103.80169510255061 H 0.0 **** 0.06
26506 C 102.93744325372893 44.05739773306712 111.11081332204014 C 0.0 **** -0.24
26507 H 102.2615393671202 44.63231227664993 110.47751576753086 H 0.0 **** 0.06
26508 H 103.15616456097703 44.623677043460674 112.01669210069963 H 0.0 **** 0.06
26509 H 103.86400351144547 43.86264876448266 110.57156528434166 H 0.0 **** 0.06
26510 H 102.4674096669701 43.11118308096579 111.37906662620429 H 0.0 **** 0.06
26511 C 29.033354601970473 35.91930108971235 24.755831122774424 C 0.0 **** -0.24
26512 H 28.227933739632135 35.49311890394614 25.354399897844814 H 0.0 **** 0.06
26513 H 28.741105083682214 35.92284450416713 23.705196885772523 H 0.0 **** 0.06
26514 H 29.933935232799286 35.31921908160905 24.88088952079542 H 0.0 **** 0.06
26515 H 29.227056331915378 36.9404563419871 25.082571229634055 H 0.0 **** 0.06
26516 C 94.74512210047135 84.91739500396935 82.0614835367335 C 0.0 **** -0.24
26517 H 95.31884505518119 84.41075890938095 81.28666723885277 H 0.0 **** 0.06
26518 H 95.12337800920864 85.93239864435185 82.18936136161153 H 0.0 **** 0.06
26519 H 94.8426790153147 84.37151748875192 83.00095789701084 H 0.0 **** 0.06
26520 H 93.6954507625698 84.95498235378676 81.77035326426477 H 0.0 **** 0.06
26521 C 88.88805015260203 2.3429712975831194 82.79613503974727 C 0.0 **** -0.24
26522 H 88.13061521963621 2.179031037470452 83.56304084838527 H 0.0 **** 0.06
26523 H 88.6153053126464 3.211322173791018 82.19620871853809 H 0.0 **** 0.06
26524 H 88.9528890949752 1.4637067254234921 82.15576073422577 H 0.0 **** 0.06
26525 H 89.85352940378141 2.517705614224326 83.27197257712163 H 0.0 **** 0.06
26526 C 74.23655416843945 118.59550375895904 38.135652716666215 C 0.0 **** -0.24
26527 H 73.69162153952328 118.33661989283712 39.04358506843499 H 0.0 **** 0.06
26528 H 75.02156360541764 119.313033869088 38.37434559854185 H 0.0 **** 0.06
26529 H 73.54835401910563 119.03683412737408 37.412944074351856 H 0.0 **** 0.06
26530 H 74.68238856977649 117.69715259306663 37.710678200680064 H 0.0 **** 0.06
26531 C 94.79951297462856 78.62942536575918 20.313042952691035 C 0.0 **** -0.24
26532 H 94.44684207909222 78.71578752689959 21.340813057514566 H 0.0 **** 0.06
26533 H 94.0708182301338 78.07094167759175 19.725376791210266 H 0.0 **** 0.06
26534 H 95.7552396692997 78.10549547722951 20.29994618409458 H 0.0 **** 0.06
26535 H 94.92538939520662 79.62445097959312 19.886979946077673 H 0.0 **** 0.06
26536 C 46.00040282991813 107.4080957612399 23.745824095831097 C 0.0 **** -0.24
26537 H 45.7279083610768 106.46250808296875 24.213494084112824 H 0.0 **** 0.06
26538 H 46.936797571137106 107.76746827677638 24.173032330352555 H 0.0 **** 0.06
26539 H 45.21373143627528 108.14198727348153 23.926406626691687 H 0.0 **** 0.06
26540 H 46.12162369772085 107.26116532702244 22.673016813509946 H 0.0 **** 0.06
26541 C 21.310547615596164 22.127403705990275 32.80326187524611 C 0.0 **** -0.24
26542 H 20.781669188947973 21.785805525493515 33.69339776356449 H 0.0 **** 0.06
26543 H 21.185170786289632 23.20473530038572 32.69744682989841 H 0.0 **** 0.06
26544 H 20.905639331700726 21.625301438346497 31.925028922292853 H 0.0 **** 0.06
26545 H 22.371372632628564 21.892343068130657 32.89922253943831 H 0.0 **** 0.06
26546 C 49.82429202243438 118.25929735159087 15.129543468327938 C 0.0 **** -0.24
26547 H 49.86548974825547 118.6589252158833 14.115954337888752 H 0.0 **** 0.06
26548 H 49.97990264406047 117.18120804003416 15.100780748316595 H 0.0 **** 0.06
26549 H 48.84880457284052 118.47541079870251 15.56487984986336 H 0.0 **** 0.06
26550 H 50.602247123543975 118.72452454602399 15.734281464387266 H 0.0 **** 0.06
26551 C 6.747777102321123 19.04856907022156 5.263451344760597 C 0.0 **** -0.24
26552 H 7.735406300391219 19.268749072226285 4.859714013904721 H 0.0 **** 0.06
26553 H 6.065559286197072 19.863653126536093 5.020296149725311 H 0.0 **** 0.06
26554 H 6.813265008875277 18.941794868666477 6.346842433277843 H 0.0 **** 0.06
26555 H 6.375972574124887 18.121193349788314 4.828937622853346 H 0.0 **** 0.06
26556 C 28.195268878229058 3.4578366226397215 87.26402425148208 C 0.0 **** -0.24
26557 H 28.16515076325578 3.4013357384758915 86.17615105706159 H 0.0 **** 0.06
26558 H 28.324616046000813 2.4562748075497556 87.67549827537144 H 0.0 **** 0.06
26559 H 27.261730645251646 3.8832769805693097 87.63108063294058 H 0.0 **** 0.06
26560 H 29.028685883568357 4.088896129487859 87.57170513688519 H 0.0 **** 0.06
26561 C 102.78948669864215 58.67971132661762 21.0523917383044 C 0.0 **** -0.24
26562 H 102.38391808840174 59.6247932767796 20.69168027449887 H 0.0 **** 0.06
26563 H 103.10453865640946 58.072298633127474 20.203381310200186 H 0.0 **** 0.06
26564 H 102.02317718621472 58.1473839563576 21.615454651597886 H 0.0 **** 0.06
26565 H 103.64515386184843 58.87424571574252 21.69824976470813 H 0.0 **** 0.06
26566 C 85.24684466993088 44.729534530132184 39.91643965921105 C 0.0 **** -0.24
26567 H 84.52674349022791 45.35006161481593 39.38371932385843 H 0.0 **** 0.06
26568 H 84.77996521819574 44.3186050913065 40.81186591179943 H 0.0 **** 0.06
26569 H 86.10759718124038 45.33470179295438 40.19997666409114 H 0.0 **** 0.06
26570 H 85.57273649312512 43.91450637656211 39.26884850728669 H 0.0 **** 0.06
26571 C 100.07035692264736 32.20215627923699 9.416289373404084 C 0.0 **** -0.24
26572 H 100.73661481390911 31.562345691225744 9.994637349976415 H 0.0 **** 0.06
26573 H 100.02732078858276 33.18973552355317 9.875891063915901 H 0.0 **** 0.06
26574 H 99.07184508688854 31.764448302135122 9.398697956891624 H 0.0 **** 0.06
26575 H 100.44545828207194 32.2903784874498 8.397351053201476 H 0.0 **** 0.06
26576 C 28.917704157850572 117.62867490284822 54.52017842471781 C 0.0 **** -0.24
26577 H 29.039037528379005 118.70415778474461 54.65050635290373 H 0.0 **** 0.06
26578 H 28.16568880705246 117.43806252960803 53.755129178330606 H 0.0 **** 0.06
26579 H 28.599798097972794 117.18278027072614 55.46244391955088 H 0.0 **** 0.06
26580 H 29.86808517539489 117.19100748654483 54.21290527699364 H 0.0 **** 0.06
26581 C 36.790145752623594 32.19333813363379 29.54050151323264 C 0.0 **** -0.24
26582 H 37.55380479672228 32.21113066265494 30.318742427650776 H 0.0 **** 0.06
26583 H 37.21615909539985 31.7857718697811 28.624249973687967 H 0.0 **** 0.06
26584 H 36.435063546243704 33.20797899606344 29.356947203332027 H 0.0 **** 0.06
26585 H 35.956961409474886 31.57015360142418 29.86385333454075 H 0.0 **** 0.06
26586 C 83.94107552689368 51.20441163916508 67.67915234333307 C 0.0 **** -0.24
26587 H 83.86355970476615 51.51809956180515 68.72046823753038 H 0.0 **** 0.06
26588 H 83.63113367784703 52.02316625874196 67.02994399451194 H 0.0 **** 0.06
26589 H 83.29579439657061 50.341779653256076 67.510496066965 H 0.0 **** 0.06
26590 H 84.97317998979838 50.934560011324834 67.45731231712301 H 0.0 **** 0.06
26591 C 23.930297434049038 62.97915790040138 93.18758248784127 C 0.0 **** -0.24
26592 H 24.464547015035777 63.435073594574156 94.02129757675141 H 0.0 **** 0.06
26593 H 24.627405716371214 62.79182035182318 92.36953946906772 H 0.0 **** 0.06
26594 H 23.144097052477264 63.652862149661864 92.84853227636148 H 0.0 **** 0.06
26595 H 23.487517426395158 62.03717925066622 93.51045495415406 H 0.0 **** 0.06
26596 C 103.73706608922618 92.95949761455734 36.778694034544344 C 0.0 **** -0.24
26597 H 103.76476476198215 91.86940705414258 36.7655035313951 H 0.0 **** 0.06
26598 H 103.00209019157725 93.2948149722672 37.51043392470234 H 0.0 **** 0.06
26599 H 103.46183767835882 93.32756287733298 35.79042593258265 H 0.0 **** 0.06
26600 H 104.72064929177358 93.34343711408013 37.04883121641592 H 0.0 **** 0.06
26601 C 85.74613375050669 54.36038133355421 106.2163571727854 C 0.0 **** -0.24
26602 H 85.234010739837 53.56222692775377 106.7519073762488 H 0.0 **** 0.06
26603 H 85.72029919100933 54.15464801717386 105.1460679729407 H 0.0 **** 0.06
26604 H 86.7824030649173 54.41631351528402 106.5502150591004 H 0.0 **** 0.06
26605 H 85.24873927222373 55.309411720704865 106.41717959004157 H 0.0 **** 0.06
26606 C 79.87959080764895 108.5046771663036 95.02073543775572 C 0.0 **** -0.24
26607 H 78.95567028443884 108.51716231427596 94.44312439466262 H 0.0 **** 0.06
26608 H 80.72394344384716 108.70078142408786 94.35964668877838 H 0.0 **** 0.06
26609 H 80.00265473557042 107.52726949563277 95.48724276246756 H 0.0 **** 0.06
26610 H 79.83563441113705 109.27221220852928 95.79330410900397 H 0.0 **** 0.06
26611 C 56.20362371665584 78.10313525559187 39.71156470105757 C 0.0 **** -0.24
26612 H 56.612429737599825 78.88643903147141 39.072539305561406 H 0.0 **** 0.06
26613 H 55.870870422803875 77.26858389502195 39.09444896059148 H 0.0 **** 0.06
26614 H 55.35950272124495 78.49836135328184 40.27518473886505 H 0.0 **** 0.06
26615 H 56.973753452399365 77.75975450150824 40.40224365242108 H 0.0 **** 0.06
26616 C 75.1288189454603 105.75493403385127 69.44648586882116 C 0.0 **** -0.24
26617 H 74.74292791161866 105.48839954023555 68.46284721183693 H 0.0 **** 0.06
26618 H 74.65390127423919 106.67542993237686 69.78595173637805 H 0.0 **** 0.06
26619 H 76.20737092317421 105.90303693759262 69.38538120705363 H 0.0 **** 0.06
26620 H 74.91118301473173 104.95153394651868 70.150665891795 H 0.0 **** 0.06
26621 C 15.15361167869266 67.7421541409818 97.58018934552996 C 0.0 **** -0.24
26622 H 14.831363594117295 66.77330564930506 97.19856604431914 H 0.0 **** 0.06
26623 H 16.215711377343826 67.87826544621399 97.37366191808178 H 0.0 **** 0.06
26624 H 14.984075472021306 67.78302982805184 98.65597147946477 H 0.0 **** 0.06
26625 H 14.58350857927832 68.5330440998761 97.09245261707767 H 0.0 **** 0.06
26626 C 6.924761977262477 88.31799414662038 32.9928083355704 C 0.0 **** -0.24
26627 H 6.022207994776892 87.79374530328872 32.68010723761567 H 0.0 **** 0.06
26628 H 7.4661423531637325 87.70870478091251 33.71614248630981 H 0.0 **** 0.06
26629 H 6.652436889439116 89.2687052741015 33.45040524023212 H 0.0 **** 0.06
26630 H 7.5582606716703395 88.50082122817872 32.12457837812376 H 0.0 **** 0.06
26631 C 2.8058362161349066 38.7757920707441 28.626047964779353 C 0.0 **** -0.24
26632 H 2.9388034413423583 38.20311543312965 29.543738945994193 H 0.0 **** 0.06
26633 H 1.7712087456278311 39.10988864457471 28.55334994316184 H 0.0 **** 0.06
26634 H 3.0459254024462297 38.14797867157296 27.76841806678575 H 0.0 **** 0.06
26635 H 3.4685006975226997 39.64135044727993 28.63901227948095 H 0.0 **** 0.06
26636 C 78.99720799229323 71.87696589369446 99.70221139263796 C 0.0 **** -0.24
26637 H 78.69238389788848 71.40862701238564 100.63886534124629 H 0.0 **** 0.06
26638 H 78.44265445372187 71.4320512137192 98.87662868393838 H 0.0 **** 0.06
26639 H 80.06552270337926 71.72047578804481 99.54915859448832 H 0.0 **** 0.06
26640 H 78.78958325124185 72.94665902885058 99.74689030977379 H 0.0 **** 0.06
26641 C 51.097333890857435 83.93944199731638 95.73279318486834 C 0.0 **** -0.24
26642 H 51.19790914053855 83.42891247443222 94.77565854333125 H 0.0 **** 0.06
26643 H 51.0472826974269 83.20194734343653 96.53418205021734 H 0.0 **** 0.06
26644 H 50.18616930901315 84.53704477837647 95.73205423065531 H 0.0 **** 0.06
26645 H 51.95816746277897 84.59007744363151 95.89066248472182 H 0.0 **** 0.06
26646 C 18.901750102457154 91.13713163658076 118.21528652172614 C 0.0 **** -0.24
26647 H 18.937381324810165 91.85955692706622 119.03134273560443 H 0.0 **** 0.06
26648 H 18.98388803446452 90.12837343553088 118.62083289694476 H 0.0 **** 0.06
26649 H 19.72818136970173 91.3218523688196 117.52970273822115 H 0.0 **** 0.06
26650 H 17.95672144769282 91.2377924416289 117.68249411062658 H 0.0 **** 0.06
26651 C 31.14661965097065 92.43906069524104 63.41887654446788 C 0.0 **** -0.24
26652 H 32.13888051421452 92.50996062651572 62.97401351651479 H 0.0 **** 0.06
26653 H 30.950836484080696 91.40548042769478 63.705477992130454 H 0.0 **** 0.06
26654 H 30.399177859312715 92.76289226895369 62.695374378528015 H 0.0 **** 0.06
26655 H 31.09840106221884 93.07670482801336 64.301578926623 H 0.0 **** 0.06
26656 C 46.23213638856045 30.023641979740944 101.97670575513615 C 0.0 **** -0.24
26657 H 46.03483190976371 30.557980327831075 102.90658375852655 H 0.0 **** 0.06
26658 H 45.39838983228168 30.170243742067413 101.28945745853343 H 0.0 **** 0.06
26659 H 46.34839804304474 28.960299379737748 102.1870134628212 H 0.0 **** 0.06
26660 H 47.146698641569714 30.40664279807575 101.52453676393827 H 0.0 **** 0.06
26661 C 40.89180609030194 55.78004595063488 43.89238139799301 C 0.0 **** -0.24
26662 H 41.13359352531597 54.80785677045959 44.32368024216366 H 0.0 **** 0.06
26663 H 41.79524890804066 56.388380378919784 43.84252253226364 H 0.0 **** 0.06
26664 H 40.1512032972891 56.27960945226331 44.51575311286816 H 0.0 **** 0.06
26665 H 40.489913934264905 55.642051633032374 42.88870773499506 H 0.0 **** 0.06
26666 C 108.75245230744105 0.4901454911745873 5.396565461608475 C 0.0 **** -0.24
26667 H 108.75157450260798 -0.3729265773563384 4.730505082760658 H 0.0 **** 0.06
26668 H 107.75708893232786 0.9354244432837504 5.415828147289034 H 0.0 **** 0.06
26669 H 109.47279379988021 1.2254420429176776 5.0373862425137474 H 0.0 **** 0.06
26670 H 109.02858808325624 0.17186310713327657 6.401961374936889 H 0.0 **** 0.06
26671 C 39.6637121848379 21.098661247074332 83.84076955493634 C 0.0 **** -0.24
26672 H 38.68155974417353 21.472207893282107 83.55365465218051 H 0.0 **** 0.06
26673 H 39.666114007317574 20.860675767175813 84.90420299362171 H 0.0 **** 0.06
26674 H 40.415419045530676 21.861521290356233 83.6371131233314 H 0.0 **** 0.06
26675 H 39.89291424304725 20.200932539427093 83.2663244550152 H 0.0 **** 0.06
26676 C 68.5370987577945 28.60223189057381 8.339275329994706 C 0.0 **** -0.24
26677 H 68.54043803822955 29.630408651458154 7.977633300494404 H 0.0 **** 0.06
26678 H 68.4340251378421 27.92025078641032 7.4943953053147965 H 0.0 **** 0.06
26679 H 67.7026250077482 28.460813338655058 9.025584939271909 H 0.0 **** 0.06
26680 H 69.47351594453957 28.397717050650186 8.859261060170184 H 0.0 **** 0.06
26681 C 2.942668115509358 53.416317207789405 88.48076296830496 C 0.0 **** -0.24
26682 H 1.9329119436066158 53.72202209765203 88.20974365191546 H 0.0 **** 0.06
26683 H 3.5858473812443137 54.294439302704575 88.53848287985201 H 0.0 **** 0.06
26684 H 3.3299984007768657 52.73148744496581 87.72671059178057 H 0.0 **** 0.06
26685 H 2.9225894788855094 52.91582904239635 89.44993742945792 H 0.0 **** 0.06
26686 C 108.89619726832791 68.64536929433416 112.42051259285647 C 0.0 **** -0.24
26687 H 108.5371049881158 69.16474156094046 113.30886372734517 H 0.0 **** 0.06
26688 H 108.05732244389372 68.44538354014378 111.75366529913407 H 0.0 **** 0.06
26689 H 109.35993401179456 67.70343894877544 112.71298995950205 H 0.0 **** 0.06
26690 H 109.62902082106456 69.26791528639615 111.90667630770068 H 0.0 **** 0.06
26691 C 44.09239408624404 84.17889251391534 89.18485971604247 C 0.0 **** -0.24
26692 H 44.60607394425759 84.20086584243964 88.22371417641571 H 0.0 **** 0.06
26693 H 43.97553210663199 85.19646677152429 89.5578563450924 H 0.0 **** 0.06
26694 H 44.6789206581488 83.59552404042509 89.89614271168628 H 0.0 **** 0.06
26695 H 43.11139666219816 83.72059410211676 89.06170064286073 H 0.0 **** 0.06
26696 C 70.72172321491243 55.148165207970315 81.6316312389672 C 0.0 **** -0.24
26697 H 71.07112510252446 54.124057562686595 81.49624111451396 H 0.0 **** 0.06
26698 H 70.81543597455553 55.689808984755736 80.69015180063462 H 0.0 **** 0.06
26699 H 71.32404651986738 55.63830523485567 82.39580719694948 H 0.0 **** 0.06
26700 H 69.67764545595452 55.13721500361779 81.94221973265144 H 0.0 **** 0.06
26701 C 51.73038018021205 36.26009159276618 91.54362559398209 C 0.0 **** -0.24
26702 H 52.16812307710546 36.92017103924535 92.29229163001108 H 0.0 **** 0.06
26703 H 51.013575929381375 36.81840698151768 90.94160719476085 H 0.0 **** 0.06
26704 H 51.223175498137266 35.433878488744696 92.04087988553721 H 0.0 **** 0.06
26705 H 52.51792016078858 35.86790775192173 90.90033781373873 H 0.0 **** 0.06
26706 C 80.80185518010916 45.752150484422906 25.86937232727852 C 0.0 **** -0.24
26707 H 81.51905566350354 46.53335379012015 25.62032745656527 H 0.0 **** 0.06
26708 H 81.30340532125808 44.96370680307339 26.429995686477092 H 0.0 **** 0.06
26709 H 80.38316169010375 45.33681543241582 24.952288269499803 H 0.0 **** 0.06
26710 H 79.99957938781029 46.17499517740837 26.474951017801814 H 0.0 **** 0.06
26711 C 89.45835139174343 34.24719137813153 45.26281061807197 C 0.0 **** -0.24
26712 H 89.47759538184943 35.18690723513771 44.710943478461274 H 0.0 **** 0.06
26713 H 88.49936453007871 34.14440270864392 45.771665528052836 H 0.0 **** 0.06
26714 H 90.26235542730186 34.240193801621785 45.99748333667401 H 0.0 **** 0.06
26715 H 89.5927468110145 33.41597033247936 44.56956022991966 H 0.0 **** 0.06
26716 C 10.88221540120044 53.086854403652126 2.818949723453329 C 0.0 **** -0.24
26717 H 11.168781650599769 53.517170145047146 1.859938434803098 H 0.0 **** 0.06
26718 H 11.232707410179273 53.73081523009148 3.625808695749299 H 0.0 **** 0.06
26719 H 11.330710888081086 52.09799862735889 2.9204371134345593 H 0.0 **** 0.06
26720 H 9.796330477039902 52.99933487225337 2.8683956490484945 H 0.0 **** 0.06
26721 C 47.678946868730165 104.12823166014647 11.31297611376877 C 0.0 **** -0.24
26722 H 47.23788568651679 103.2271515636449 11.738749812592232 H 0.0 **** 0.06
26723 H 48.34101587079731 103.855170343926 10.490639331298041 H 0.0 **** 0.06
26724 H 48.24878584214429 104.65180100980476 12.080084451949489 H 0.0 **** 0.06
26725 H 46.88738618186797 104.77946745164803 10.940418369908912 H 0.0 **** 0.06
26726 C 24.96911755584253 4.189985285961143 51.41320476507434 C 0.0 **** -0.24
26727 H 25.182409880418263 3.4266667778143187 52.16231816095731 H 0.0 **** 0.06
26728 H 24.6688366028921 5.11295848857344 51.91115606500429 H 0.0 **** 0.06
26729 H 24.16230821444921 3.8470204352333894 50.76474703838096 H 0.0 **** 0.06
26730 H 25.862781161973246 4.372691343803297 50.81586945967979 H 0.0 **** 0.06
26731 C 24.59874014889067 107.48892695191498 70.70088084393157 C 0.0 **** -0.24
26732 H 24.710211591942695 107.38187568941004 69.62184158598473 H 0.0 **** 0.06
26733 H 24.335926210191047 108.51941204371434 70.93853782428442 H 0.0 **** 0.06
26734 H 25.539125324740183 107.23173338948689 71.18976308158372 H 0.0 **** 0.06
26735 H 23.812191821570934 106.82185768969364 71.05233616435714 H 0.0 **** 0.06
26736 C 91.85426472345407 115.97942795971633 115.3785135033616 C 0.0 **** -0.24
26737 H 92.36025692232482 116.76057969342331 114.810430338549 H 0.0 **** 0.06
26738 H 90.86081887793014 116.3252587388413 115.66501136274604 H 0.0 **** 0.06
26739 H 92.43210261418471 115.75002537207611 116.27323878675207 H 0.0 **** 0.06
26740 H 91.76432790667508 115.08403825165598 114.76292334135087 H 0.0 **** 0.06
26741 C 78.44951600648398 75.88127950608546 84.64024454054899 C 0.0 **** -0.24
26742 H 78.33342055581912 76.31972213613 85.63100406211811 H 0.0 **** 0.06
26743 H 78.49298218014226 76.67603830812703 83.89431370236076 H 0.0 **** 0.06
26744 H 77.60015186554298 75.23060372749634 84.42929377258127 H 0.0 **** 0.06
26745 H 79.37103811354928 75.30004734679304 84.60604281050973 H 0.0 **** 0.06
26746 C 56.84279671658566 47.45102048984273 6.126928721189444 C 0.0 **** -0.24
26747 H 55.94989230288197 47.60394624333371 6.733106081288753 H 0.0 **** 0.06
26748 H 56.59373591338532 47.58081416174767 5.073658624191509 H 0.0 **** 0.06
26749 H 57.223838647893864 46.44328636898507 6.288890105877584 H 0.0 **** 0.06
26750 H 57.60386927320638 48.177373682456775 6.412491652651639 H 0.0 **** 0.06
26751 C 15.178834724046862 47.24867012675276 19.182119665790452 C 0.0 **** -0.24
26752 H 14.251479207703738 47.76998506287498 19.418756587112995 H 0.0 **** 0.06
26753 H 15.478870365301265 47.48559846396415 18.161616301837682 H 0.0 **** 0.06
26754 H 15.024607559594582 46.173386125994796 19.27600210083287 H 0.0 **** 0.06
26755 H 15.959423875217936 47.564753216422616 19.87414468566439 H 0.0 **** 0.06
26756 C 111.89042861455192 56.36702388532498 73.9012637175195 C 0.0 **** -0.24
26757 H 110.81990711074312 56.56769158508408 73.88132204823825 H 0.0 **** 0.06
26758 H 112.05834981070589 55.29026748842327 73.94578101266569 H 0.0 **** 0.06
26759 H 112.33205849178381 56.84000567589732 74.77867461077113 H 0.0 **** 0.06
26760 H 112.35252692413485 56.769744658875226 73.00003805779045 H 0.0 **** 0.06
26761 C 37.02265438393135 39.15018644523366 27.56426014456062 C 0.0 **** -0.24
26762 H 37.53820323992221 38.27535132447866 27.167833015959474 H 0.0 **** 0.06
26763 H 36.69385566867527 38.94638922109556 28.58433748883658 H 0.0 **** 0.06
26764 H 36.15653738297033 39.37422310240214 26.941902159628768 H 0.0 **** 0.06
26765 H 37.70111014055203 40.00320775000313 27.564268491121283 H 0.0 **** 0.06
26766 C 0.28593667988364757 93.59364415258324 118.64078257967026 C 0.0 **** -0.24
26767 H 0.7179305340609314 94.42155125491979 119.20201840046315 H 0.0 **** 0.06
26768 H 0.699738900987203 93.58254522139893 117.63264961202057 H 0.0 **** 0.06
26769 H -0.7963674583769471 93.71483885820382 118.58865576340972 H 0.0 **** 0.06
26770 H 0.521223143183434 92.65367813794376 119.14061532909315 H 0.0 **** 0.06
26771 C 73.91978842617758 108.93277957870464 103.35743437932746 C 0.0 **** -0.24
26772 H 74.88592070830595 109.1996270371402 103.78662484847149 H 0.0 **** 0.06
26773 H 74.0668829926845 108.51298960003814 102.36267054237248 H 0.0 **** 0.06
26774 H 73.2962113426953 109.82441203030328 103.28702271031517 H 0.0 **** 0.06
26775 H 73.4306231200286 108.1968354008952 103.99452696474799 H 0.0 **** 0.06
26776 C 57.587580081667056 76.32906191937013 17.35263178395988 C 0.0 **** -0.24
26777 H 56.91634933647191 75.56924306180062 17.754381990529566 H 0.0 **** 0.06
26778 H 57.138143109349585 76.77877065413719 16.46686766614053 H 0.0 **** 0.06
26779 H 58.53731648112446 75.86723661427885 17.083090101631143 H 0.0 **** 0.06
26780 H 57.757833881978485 77.09895127097124 18.10559169783835 H 0.0 **** 0.06
26781 C 49.142298151628296 85.8559291761207 103.20757974652389 C 0.0 **** -0.24
26782 H 49.941189656566735 85.63330070886596 102.50108528142863 H 0.0 **** 0.06
26783 H 49.29628077021019 86.85088546287295 103.62642932250682 H 0.0 **** 0.06
26784 H 49.15027192440232 85.11854934463483 104.00962582491445 H 0.0 **** 0.06
26785 H 48.182435430612514 85.8231840441378 102.69275759841472 H 0.0 **** 0.06
26786 C 64.33857068970823 46.68799126734763 102.32230693000898 C 0.0 **** -0.24
26787 H 65.06669414129527 46.70900829058286 103.13372614727461 H 0.0 **** 0.06
26788 H 64.65150022207854 45.96105275990914 101.57322879850636 H 0.0 **** 0.06
26789 H 64.27463028861038 47.6757923154849 101.86605778997838 H 0.0 **** 0.06
26790 H 63.36333210471537 46.40602212560299 102.71833172145372 H 0.0 **** 0.06
26791 C 10.354589560443685 103.75694995394682 67.85929663366548 C 0.0 **** -0.24
26792 H 9.294356106371708 103.994516659635 67.7700740169146 H 0.0 **** 0.06
26793 H 10.64288937290479 103.07481396028578 67.05967093534665 H 0.0 **** 0.06
26794 H 10.540035310089934 103.28619521361273 68.82469831775686 H 0.0 **** 0.06
26795 H 10.939459010831797 104.67411711289009 67.78415180459251 H 0.0 **** 0.06
26796 C 0.7931764236085996 13.0552940792723 50.56226181754148 C 0.0 **** -0.24
26797 H 0.7633086657068588 13.667269342528897 49.661179845894964 H 0.0 **** 0.06
26798 H 0.6324119492019804 13.687797942208999 51.43545265117595 H 0.0 **** 0.06
26799 H 1.7664113756730444 12.570343232538104 50.63877966090304 H 0.0 **** 0.06
26800 H 0.011244997720268657 12.297898396454755 50.51359401596867 H 0.0 **** 0.06
26801 C 36.755128832475364 7.168091993425904 14.965532190410954 C 0.0 **** -0.24
26802 H 36.24644568975147 7.225667207661871 14.003371025044629 H 0.0 **** 0.06
26803 H 36.48886791679706 8.036424880800965 15.569153560336844 H 0.0 **** 0.06
26804 H 37.832860492122705 7.152876943713551 14.806684858240317 H 0.0 **** 0.06
26805 H 36.451273109582715 6.258667004875434 15.483420623484875 H 0.0 **** 0.06
26806 C 11.598013608702331 91.08190635977203 71.65184863256633 C 0.0 **** -0.24
26807 H 12.664288958452687 91.29933235337887 71.59223013153769 H 0.0 **** 0.06
26808 H 11.405249998648927 90.4413747228133 72.51221713311878 H 0.0 **** 0.06
26809 H 11.280157608553424 90.57259867212602 70.74150041695987 H 0.0 **** 0.06
26810 H 11.041867400245067 92.01289513461563 71.75885250729914 H 0.0 **** 0.06
26811 C 111.54614222243707 53.23924986164894 8.736636849180087 C 0.0 **** -0.24
26812 H 112.54326745119474 53.65421116082544 8.887222464731991 H 0.0 **** 0.06
26813 H 110.81447341455166 53.853647562307785 9.261009590605923 H 0.0 **** 0.06
26814 H 111.51357629117311 52.22225719691497 9.127502490666785 H 0.0 **** 0.06
26815 H 111.3150316508447 53.22768774423075 7.67229118664649 H 0.0 **** 0.06
26816 C 13.24072015392835 106.79055102401645 112.77787599040278 C 0.0 **** -0.24
26817 H 14.243990190708757 107.02496661694337 112.42212589581055 H 0.0 **** 0.06
26818 H 12.566905330910018 107.61136780589922 112.53084359488344 H 0.0 **** 0.06
26819 H 13.262114343850868 106.65116691486588 113.85919832391033 H 0.0 **** 0.06
26820 H 12.89020935987898 105.87598746520928 112.30113480334177 H 0.0 **** 0.06
26821 C 70.01556110533653 23.859604900766158 63.276285795865626 C 0.0 **** -0.24
26822 H 70.5410438150048 22.920967116478153 63.10053142570198 H 0.0 **** 0.06
26823 H 70.71488635036718 24.6002255858254 63.665282991320915 H 0.0 **** 0.06
26824 H 69.21691563866278 23.698180465581572 64.00137077680012 H 0.0 **** 0.06
26825 H 69.58975066829612 24.217953038775704 62.34012152742691 H 0.0 **** 0.06
26826 C 89.309773272662 32.61639218559992 117.07099729540597 C 0.0 **** -0.24
26827 H 88.49625139902693 32.62618005912764 117.79558604769959 H 0.0 **** 0.06
26828 H 89.68656681239523 31.598889647898424 116.9612892522217 H 0.0 **** 0.06
26829 H 90.11289396611267 33.26660730583044 117.41851426569359 H 0.0 **** 0.06
26830 H 88.94338091311306 32.973891729543055 116.10859961600916 H 0.0 **** 0.06
26831 C 27.36178307856043 12.584555580391012 53.12642238206445 C 0.0 **** -0.24
26832 H 27.260709372014908 13.161674716880825 52.20638799489083 H 0.0 **** 0.06
26833 H 27.456497078286105 11.52678317791269 52.882813434974 H 0.0 **** 0.06
26834 H 26.48061416176335 12.737571031941926 53.749760331835006 H 0.0 **** 0.06
26835 H 28.250329199763875 12.914844028849643 53.66533513468568 H 0.0 **** 0.06
26836 C 62.7068551148227 32.56752796098823 82.93536286771501 C 0.0 **** -0.24
26837 H 62.46259173812075 31.994621578541654 82.04088131842849 H 0.0 **** 0.06
26838 H 62.103914922901055 33.47543722807856 82.96125650752651 H 0.0 **** 0.06
26839 H 63.76407607336117 32.8339359249012 82.91812156310289 H 0.0 **** 0.06
26840 H 62.49778128248428 31.966846905384415 83.82043233285458 H 0.0 **** 0.06
26841 C 76.39735565538106 112.60233669269331 118.71425810568849 C 0.0 **** -0.24
26842 H 76.42552132726712 112.8711389336508 119.77008460787702 H 0.0 **** 0.06
26843 H 77.06434887889077 113.25942893864362 118.15559503413839 H 0.0 **** 0.06
26844 H 75.38022711243048 112.71153720666143 118.33794395073893 H 0.0 **** 0.06
26845 H 76.72045840843052 111.56826930196183 118.5942213969219 H 0.0 **** 0.06
26846 C 83.79776310215271 62.443705989007896 99.11287622913702 C 0.0 **** -0.24
26847 H 84.60945410722462 62.85165572236758 98.51011813116179 H 0.0 **** 0.06
26848 H 84.15416041012122 61.57059341083959 99.65912794076414 H 0.0 **** 0.06
26849 H 82.97200336090964 62.15520347404512 98.46319425697388 H 0.0 **** 0.06
26850 H 83.4561906896914 63.20070765293215 99.82020391153316 H 0.0 **** 0.06
26851 C 26.17813531403712 19.241381188156936 40.90414217989388 C 0.0 **** -0.24
26852 H 27.150257640131883 19.70995416455554 40.751171231348394 H 0.0 **** 0.06
26853 H 26.118077095527838 18.852984347734605 41.92039383311322 H 0.0 **** 0.06
26854 H 26.054099759982137 18.424297854537883 40.19332885276356 H 0.0 **** 0.06
26855 H 25.391150890077142 19.979574087475157 40.749173344441886 H 0.0 **** 0.06
26856 C 55.73846969060264 10.12759842632488 35.70288917363639 C 0.0 **** -0.24
26857 H 56.43155884567136 9.639701456597095 36.388867738036964 H 0.0 **** 0.06
26858 H 54.77101242480927 10.248410280988992 36.19126562795768 H 0.0 **** 0.06
26859 H 55.620643741146864 9.516063676666192 34.8088797739464 H 0.0 **** 0.06
26860 H 56.1306073619503 11.10556797442814 35.425295713223065 H 0.0 **** 0.06
26861 C 56.45101592460414 117.42931081218288 7.307593283576068 C 0.0 **** -0.24
26862 H 57.05220537407171 117.84780873608767 6.5002573449031615 H 0.0 **** 0.06
26863 H 56.14504139692175 116.41668254280901 7.045002082001616 H 0.0 **** 0.06
26864 H 55.56752865426534 118.04868761186422 7.461545156826276 H 0.0 **** 0.06
26865 H 57.04121825124046 117.4047805815636 8.224441763696149 H 0.0 **** 0.06
26866 C 49.56720410406774 69.54427873776802 12.11443649491407 C 0.0 **** -0.24
26867 H 48.717462989353095 70.13768096261964 12.45391327541386 H 0.0 **** 0.06
26868 H 50.49314882546611 70.06564014923012 12.356453438390528 H 0.0 **** 0.06
26869 H 49.501000445515245 69.40098874193376 11.036022562529812 H 0.0 **** 0.06
26870 H 49.554355277259845 68.57450292182378 12.611400592678706 H 0.0 **** 0.06
26871 C 50.51435917429396 86.61868982119998 116.5891045507373 C 0.0 **** -0.24
26872 H 49.75919879364602 85.86259023788858 116.80619173625058 H 0.0 **** 0.06
26873 H 50.54417909899098 87.34378439218972 117.40281656614908 H 0.0 **** 0.06
26874 H 50.26294712376651 87.12610808100561 115.6584836936197 H 0.0 **** 0.06
26875 H 51.4886768380224 86.14053263631027 116.49116920557614 H 0.0 **** 0.06
26876 C 70.34752107293727 30.368266443857152 23.0778124755227 C 0.0 **** -0.24
26877 H 71.06383792960617 30.36204647977506 23.899482758018344 H 0.0 **** 0.06
26878 H 70.43635687541754 31.304937011521673 22.526521191948365 H 0.0 **** 0.06
26879 H 69.3373082181657 30.27559045580125 23.47578946418338 H 0.0 **** 0.06
26880 H 70.55311969029373 29.53239792299783 22.409734227726236 H 0.0 **** 0.06
26881 C 31.965912027427976 45.24034277964755 62.13049316774924 C 0.0 **** -0.24
26882 H 31.30391361919854 44.44391831497951 61.787512308446715 H 0.0 **** 0.06
26883 H 31.369227968628763 46.089778579506316 62.465338831221096 H 0.0 **** 0.06
26884 H 32.61293888747457 45.55143753914683 61.31004762495771 H 0.0 **** 0.06
26885 H 32.5758397369334 44.875326047393244 62.95679670709145 H 0.0 **** 0.06
26886 C 80.35643069597549 90.28013488283943 90.85214406485787 C 0.0 **** -0.24
26887 H 79.56049567277904 90.8552634273681 91.32541372913485 H 0.0 **** 0.06
26888 H 80.92524537142177 90.92819543006746 90.18446597398858 H 0.0 **** 0.06
26889 H 79.92124178632514 89.46087830678817 90.27983309588183 H 0.0 **** 0.06
26890 H 81.0189050926891 89.87721472372024 91.6178898176442 H 0.0 **** 0.06
26891 C 42.057383220065105 19.614980344622797 12.36521590050127 C 0.0 **** -0.24
26892 H 42.97029207754616 20.163133681675717 12.133405897637275 H 0.0 **** 0.06
26893 H 41.22686020725985 20.314989528428924 12.457958843157286 H 0.0 **** 0.06
26894 H 42.1863169156627 19.075785864076163 13.303370444039246 H 0.0 **** 0.06
26895 H 41.84777432480598 18.905132693400223 11.564611733409734 H 0.0 **** 0.06
26896 C 105.63547921964567 105.75138111589942 60.229711394312694 C 0.0 **** -0.24
26897 H 106.15020767173013 105.63531946275012 59.27612665174659 H 0.0 **** 0.06
26898 H 106.30932071117178 106.20997681071239 60.952994995410855 H 0.0 **** 0.06
26899 H 105.32111115872834 104.7730503451329 60.59447467048762 H 0.0 **** 0.06
26900 H 104.7599797772362 106.38682520650116 60.09481096519975 H 0.0 **** 0.06
26901 C 51.22026895072372 33.85026971727817 48.092655535168234 C 0.0 **** -0.24
26902 H 50.53232260020246 33.366218737598274 47.39903887526788 H 0.0 **** 0.06
26903 H 51.04970865903918 34.92728979725595 48.08136097167977 H 0.0 **** 0.06
26904 H 52.2463184466736 33.64114999401616 47.79089915829155 H 0.0 **** 0.06
26905 H 51.050594555699405 33.46681989958344 49.09877799609748 H 0.0 **** 0.06
26906 C 14.970157033924323 68.03972278619236 19.68410053734533 C 0.0 **** -0.24
26907 H 14.022809547780952 67.67567427822468 20.081461810486974 H 0.0 **** 0.06
26908 H 15.224942589020515 68.98599801021271 20.162575364389813 H 0.0 **** 0.06
26909 H 14.879054213198629 68.18940061284079 18.607822482850015 H 0.0 **** 0.06
26910 H 15.753029911458867 67.30804631835159 19.883975944563026 H 0.0 **** 0.06
26911 C 88.47041817874492 47.07825201139317 57.81188248703904 C 0.0 **** -0.24
26912 H 88.13735855358755 47.26537767225123 56.791226904693644 H 0.0 **** 0.06
26913 H 88.86984045643749 47.99892199203945 58.23801420203037 H 0.0 **** 0.06
26914 H 89.24681378406456 46.31294086487187 57.80602526506914 H 0.0 **** 0.06
26915 H 87.62683213917512 46.73549863742409 58.41177109277737 H 0.0 **** 0.06
26916 C 38.75415530194911 49.78384195523611 105.73578923759061 C 0.0 **** -0.24
26917 H 38.22695847442738 50.58022814066692 105.20935102818618 H 0.0 **** 0.06
26918 H 38.46030199491999 48.819021061517816 105.32160511700258 H 0.0 **** 0.06
26919 H 38.4982172614223 49.818189655035894 106.79455526405809 H 0.0 **** 0.06
26920 H 39.82835450953141 49.91895303801658 105.61722905680733 H 0.0 **** 0.06
26921 C 37.195479989942214 65.3453584292034 84.71383977358644 C 0.0 **** -0.24
26922 H 37.76619789173304 64.91351501601665 85.53476656490028 H 0.0 **** 0.06
26923 H 37.068850914914236 64.60087010540636 83.92789017140933 H 0.0 **** 0.06
26924 H 37.72859019405013 66.20836901501679 84.31480993125473 H 0.0 **** 0.06
26925 H 36.217137698514506 65.65946296512644 85.07761068089502 H 0.0 **** 0.06
26926 C 42.23660147615521 63.06697971818998 25.4595419056117 C 0.0 **** -0.24
26927 H 43.20570055966346 62.892365908001516 24.993532810174457 H 0.0 **** 0.06
26928 H 41.46486048222828 63.106790234743535 24.690076768503474 H 0.0 **** 0.06
26929 H 42.25964825049272 64.01341808591252 26.000225603871684 H 0.0 **** 0.06
26930 H 42.01599644853333 62.25674430967006 26.154363870889227 H 0.0 **** 0.06
26931 C 82.19002833497345 56.189586017354294 45.589803659808865 C 0.0 **** -0.24
26932 H 81.43911351610319 55.40002838402179 45.60764232040401 H 0.0 **** 0.06
26933 H 83.1178907819318 55.79840045758903 45.170599891527615 H 0.0 **** 0.06
26934 H 82.3705664920852 56.54370992794329 46.60477696136405 H 0.0 **** 0.06
26935 H 81.83346568095232 57.0168978902473 44.97490383013121 H 0.0 **** 0.06
26936 C 114.52889729941664 5.158848599656096 47.80779462902879 C 0.0 **** -0.24
26937 H 114.02736716502207 4.844620952594482 46.89218602864736 H 0.0 **** 0.06
26938 H 114.19700724476823 6.1615094640118855 48.07777382733815 H 0.0 **** 0.06
26939 H 115.60787661415367 5.163942099565588 47.64715722204346 H 0.0 **** 0.06
26940 H 114.28479472329451 4.465396379088304 48.61209337687146 H 0.0 **** 0.06
26941 C 39.213015528770796 15.060015151214287 81.14845627265038 C 0.0 **** -0.24
26942 H 38.23522041444414 14.85048223884418 80.71505088948408 H 0.0 **** 0.06
26943 H 39.86618696042436 15.481329919178137 80.38337810849663 H 0.0 **** 0.06
26944 H 39.64795959390193 14.13535208363335 81.52774170206197 H 0.0 **** 0.06
26945 H 39.103452390438335 15.773173152840002 81.96612137245506 H 0.0 **** 0.06
26946 C 53.89542603497796 2.749294931868647 16.151919373402862 C 0.0 **** -0.24
26947 H 53.86453359213078 1.9018983673836658 16.83653259772612 H 0.0 **** 0.06
26948 H 54.82558411757668 2.7237250522770466 15.58397949147151 H 0.0 **** 0.06
26949 H 53.8418641065432 3.6776456111029745 16.720712580862855 H 0.0 **** 0.06
26950 H 53.048869049552536 2.6933943401949136 15.46652602055875 H 0.0 **** 0.06
26951 C 33.98480875540089 107.85061895129087 87.25853233729191 C 0.0 **** -0.24
26952 H 34.46456323855675 107.34047980711111 86.42380052114919 H 0.0 **** 0.06
26953 H 33.107429467963314 107.28582972164187 87.57317064122753 H 0.0 **** 0.06
26954 H 33.682656581802455 108.85066420750832 86.94828551358114 H 0.0 **** 0.06
26955 H 34.68651731767444 107.92537183235007 88.08999174110937 H 0.0 **** 0.06
26956 C 57.023631591096695 50.1723445562796 100.0985719967129 C 0.0 **** -0.24
26957 H 56.66815828960886 51.09719172333013 100.55210477100309 H 0.0 **** 0.06
26958 H 56.388734815364096 49.344313308823274 100.41556406552019 H 0.0 **** 0.06
26959 H 58.05021286786822 49.983377377309694 100.41440095089422 H 0.0 **** 0.06
26960 H 56.988800750828936 50.26250389948794 99.01257489199318 H 0.0 **** 0.06
26961 C 23.78137852256623 97.14784565959471 74.31326018196933 C 0.0 **** -0.24
26962 H 24.106649466927195 98.09371728262568 73.88140813735166 H 0.0 **** 0.06
26963 H 24.316498343399246 96.32689796939155 73.83480924177312 H 0.0 **** 0.06
26964 H 22.709683335301293 97.02478100992829 74.15420001113304 H 0.0 **** 0.06
26965 H 23.992713870117313 97.1437504656015 75.38261708001835 H 0.0 **** 0.06
26966 C 17.191205028109465 87.34486700508444 26.691701000968266 C 0.0 **** -0.24
26967 H 17.49223284865468 87.55908014528822 25.666082373805324 H 0.0 **** 0.06
26968 H 17.467521490517214 88.18148876254693 27.33350535001219 H 0.0 **** 0.06
26969 H 17.694925520532053 86.44057335860597 27.0357610807647 H 0.0 **** 0.06
26970 H 16.112051486513536 87.19641843136503 26.729809024396772 H 0.0 **** 0.06
26971 C 93.66209376442586 105.170837533368 93.72848597067258 C 0.0 **** -0.24
26972 H 94.03309540279488 104.31907064730643 94.2993437283767 H 0.0 **** 0.06
26973 H 93.19694694872516 105.8871916850926 94.40743065046297 H 0.0 **** 0.06
26974 H 92.92655984369071 104.82827960614532 93.00200309277963 H 0.0 **** 0.06
26975 H 94.49239243916702 105.6487955678171 93.20885650390395 H 0.0 **** 0.06
26976 C 25.63272382241115 109.76225574935035 11.94724961106563 C 0.0 **** -0.24
26977 H 25.99413698736683 109.40361004327934 10.983247340870545 H 0.0 **** 0.06
26978 H 25.411996258466047 110.82772781227612 11.879336270235932 H 0.0 **** 0.06
26979 H 26.398197664406098 109.59669356302686 12.70576300191842 H 0.0 **** 0.06
26980 H 24.727811156961025 109.21919187280258 12.219553216049114 H 0.0 **** 0.06
26981 C 118.04473301051027 0.8557656179342796 117.37450751546814 C 0.0 **** -0.24
26982 H 117.61012399771622 -0.12890907827599918 117.20630157204863 H 0.0 **** 0.06
26983 H 117.67879660089613 1.2569397235939412 118.32065367959845 H 0.0 **** 0.06
26984 H 117.75952552074992 1.5229356117264317 116.56184621784007 H 0.0 **** 0.06
26985 H 119.13098680950685 0.7720898898228299 117.41140789621303 H 0.0 **** 0.06
26986 C 91.41820692026661 21.03899286113392 41.0382085510173 C 0.0 **** -0.24
26987 H 91.45686165679126 21.14997417795469 39.95396706347309 H 0.0 **** 0.06
26988 H 92.38682626694637 20.696967440521462 41.40279289451816 H 0.0 **** 0.06
26989 H 90.65187148257723 20.30931073214579 41.30096051466253 H 0.0 **** 0.06
26990 H 91.17655891154081 21.99936447380631 41.49302295615101 H 0.0 **** 0.06
26991 C 9.133465268509042 64.64379572597682 28.996248506698933 C 0.0 **** -0.24
26992 H 10.136226957421144 64.61356878054517 28.570408304713062 H 0.0 **** 0.06
26993 H 9.201920597092965 64.7163901319584 30.081717297157468 H 0.0 **** 0.06
26994 H 8.595766822084585 63.73612749851907 28.725388328789556 H 0.0 **** 0.06
26995 H 8.600015399214385 65.51215346561105 28.606673384663452 H 0.0 **** 0.06
26996 C 33.61693047324525 99.03895619168179 17.809151387694726 C 0.0 **** -0.24
26997 H 33.464658960307816 98.97672119971574 16.73171797870387 H 0.0 **** 0.06
26998 H 33.673071752957014 100.08649863350581 18.10783123710698 H 0.0 **** 0.06
26999 H 34.545861915779085 98.53554514818828 18.073711705402502 H 0.0 **** 0.06
27000 H 32.78390327554848 98.55885309484904 18.321691353568212 H 0.0 **** 0.06
27001 C 89.31342374634971 8.768716512226007 47.56606507905701 C 0.0 **** -0.24
27002 H 89.8679722084149 8.538319719507683 48.47634468199786 H 0.0 **** 0.06
27003 H 88.46263503513796 9.404236556164435 47.81083514410395 H 0.0 **** 0.06
27004 H 88.95845491167725 7.843993673592209 47.11217047595753 H 0.0 **** 0.06
27005 H 89.96744309082581 9.289797891656846 46.865862574718136 H 0.0 **** 0.06
27006 C 97.24570677547428 10.780016760937542 66.59665194963046 C 0.0 **** -0.24
27007 H 98.19557633081888 10.902346902430736 66.07480923624522 H 0.0 **** 0.06
27008 H 96.526090064881 10.301260778825622 65.9329268269781 H 0.0 **** 0.06
27009 H 96.8692290217536 11.757994580008443 66.89682767494764 H 0.0 **** 0.06
27010 H 97.39463496994523 10.160711213918148 67.48076085610705 H 0.0 **** 0.06
27011 C 32.216808357774 84.25362760735266 55.840012185813634 C 0.0 **** -0.24
27012 H 32.82043390068205 84.54535113927989 54.98047733270934 H 0.0 **** 0.06
27013 H 32.12582302201929 83.16708658316537 55.86695521683535 H 0.0 **** 0.06
27014 H 31.225684801453667 84.69928824417735 55.755376128955305 H 0.0 **** 0.06
27015 H 32.69592294074371 84.6017571131078 56.75431659385427 H 0.0 **** 0.06
27016 C 15.234613282596918 26.887372022706018 60.92988695596505 C 0.0 **** -0.24
27017 H 15.731731572949911 27.641813424009854 60.319259238449455 H 0.0 **** 0.06
27018 H 15.795512954412008 25.95445328482964 60.88232958539414 H 0.0 **** 0.06
27019 H 14.224975759325854 26.72386558198457 60.552596212568766 H 0.0 **** 0.06
27020 H 15.185984829130422 27.231678244280914 61.96261587962369 H 0.0 **** 0.06
27021 C 113.5518556528574 38.33659906260045 23.088983489409998 C 0.0 **** -0.24
27022 H 113.49003641682586 39.33301679842386 23.528903675147234 H 0.0 **** 0.06
27023 H 112.56331150758231 38.0304031377512 22.74500940983384 H 0.0 **** 0.06
27024 H 113.91183062919123 37.63180913631075 23.837533861605237 H 0.0 **** 0.06
27025 H 114.24161734777923 38.35541812388807 22.24608009692102 H 0.0 **** 0.06
27026 C 105.78408116201365 53.781200809245405 29.381387842198762 C 0.0 **** -0.24
27027 H 104.7852559497077 54.1509542038859 29.14791570878026 H 0.0 **** 0.06
27028 H 106.40751659403 53.832443730179364 28.488349188981175 H 0.0 **** 0.06
27029 H 105.71745634497398 52.74750595127267 29.720372547209735 H 0.0 **** 0.06
27030 H 106.22409254408916 54.39474630425238 30.167786913940546 H 0.0 **** 0.06
27031 C 61.73136563140826 46.167942949451714 22.71825283703953 C 0.0 **** -0.24
27032 H 62.07471951956389 45.91639996180747 23.72233743269055 H 0.0 **** 0.06
27033 H 61.190747854786714 47.114539588044096 22.747060015587465 H 0.0 **** 0.06
27034 H 61.07132004725245 45.382624903688395 22.352746559741206 H 0.0 **** 0.06
27035 H 62.590438533482335 46.26077056211943 22.053752003872802 H 0.0 **** 0.06
27036 C 26.304556362805045 52.847947918433505 47.54120096376005 C 0.0 **** -0.24
27037 H 26.231771634442936 52.005510322153526 48.22832380019713 H 0.0 **** 0.06
27038 H 27.027519212645082 52.61699337562183 46.75844089656698 H 0.0 **** 0.06
27039 H 26.627721298132478 53.73399136798423 48.085791526767935 H 0.0 **** 0.06
27040 H 25.328570335930166 53.03406160489308 47.09102695047579 H 0.0 **** 0.06
27041 C 48.361781141848496 26.75886190278689 63.022609294790776 C 0.0 **** -0.24
27042 H 48.33953797549509 26.759520610072542 64.11270627126063 H 0.0 **** 0.06
27043 H 49.22105014085615 26.184591635982343 62.676856504239204 H 0.0 **** 0.06
27044 H 48.43914181694616 27.784185671329993 62.66045727716729 H 0.0 **** 0.06
27045 H 47.445159488756104 26.30786982742731 62.64111418041107 H 0.0 **** 0.06
27046 C 90.7784453279194 25.699696968191688 115.90885539492372 C 0.0 **** -0.24
27047 H 91.18645462782726 25.231363514826228 115.01280528881662 H 0.0 **** 0.06
27048 H 91.59167393523282 26.120484691785265 116.50060916199769 H 0.0 **** 0.06
27049 H 90.24714428318018 24.953293120343574 116.49903591151744 H 0.0 **** 0.06
27050 H 90.0893116313641 26.493945941717968 115.62090588945287 H 0.0 **** 0.06
27051 C 53.18663025995155 64.4144133608161 90.23246074230264 C 0.0 **** -0.24
27052 H 53.67369845780595 64.40313270691021 91.20740580419806 H 0.0 **** 0.06
27053 H 53.49930115015561 65.30170117369215 89.68098555416373 H 0.0 **** 0.06
27054 H 52.10530593742754 64.4325026759829 90.36667708334184 H 0.0 **** 0.06
27055 H 53.46879146543404 63.52160266559735 89.67489760097038 H 0.0 **** 0.06
27056 C 58.24867992116077 32.98972064420739 38.49686042198459 C 0.0 **** -0.24
27057 H 58.75298952361271 33.31283886786222 37.586780237668904 H 0.0 **** 0.06
27058 H 57.582394665752076 33.779964718749625 38.843277582756 H 0.0 **** 0.06
27059 H 58.98970908236578 32.77601846690881 39.26702580799815 H 0.0 **** 0.06
27060 H 57.66899137907194 32.088933160623895 38.29092893823724 H 0.0 **** 0.06
27061 C 115.26375173207524 6.695012190724697 62.5181598819118 C 0.0 **** -0.24
27062 H 114.80708031618028 7.025085015620945 63.45094050274207 H 0.0 **** 0.06
27063 H 114.69221745464449 5.862502697242505 62.10872730059339 H 0.0 **** 0.06
27064 H 116.28824750071911 6.374721625107753 62.70774348835411 H 0.0 **** 0.06
27065 H 115.26706727220812 7.5196579521255416 61.804149344392584 H 0.0 **** 0.06
27066 C 69.39669093617601 5.389754745484728 98.72799739357916 C 0.0 **** -0.24
27067 H 68.49983642126509 5.7847443066695305 98.24988146093173 H 0.0 **** 0.06
27068 H 70.23420861138132 6.060579479325931 98.53782678499593 H 0.0 **** 0.06
27069 H 69.6200701371126 4.404134842677811 98.32132599252921 H 0.0 **** 0.06
27070 H 69.22962149959045 5.310819512661798 99.80245336319877 H 0.0 **** 0.06
27071 C 97.40015191890211 23.615401246565753 69.78285898594865 C 0.0 **** -0.24
27072 H 96.99844535381061 22.803875901461055 69.17525296309518 H 0.0 **** 0.06
27073 H 98.45482132415873 23.758719945855006 69.54490343010275 H 0.0 **** 0.06
27074 H 97.29652605668207 23.36376206825298 70.83851659880011 H 0.0 **** 0.06
27075 H 96.85105633043264 24.533546907757056 69.57298956332224 H 0.0 **** 0.06
27076 C 41.25049003282169 20.259119790043286 71.12660864417796 C 0.0 **** -0.24
27077 H 40.489177477099815 20.62835912766913 71.81322063825752 H 0.0 **** 0.06
27078 H 40.78779350841444 19.599556924463258 70.39253282069868 H 0.0 **** 0.06
27079 H 42.0064398543301 19.70817657265846 71.68519609868306 H 0.0 **** 0.06
27080 H 41.71743705912087 21.101875354637542 70.61622433681299 H 0.0 **** 0.06
27081 C 25.78292993944345 64.42345204571274 111.15474153604984 C 0.0 **** -0.24
27082 H 25.827944576388347 63.51008038140842 111.74653994823566 H 0.0 **** 0.06
27083 H 25.6677675290249 65.28124011548502 111.8182058401841 H 0.0 **** 0.06
27084 H 24.93257198060431 64.3731664834215 110.4744575570459 H 0.0 **** 0.06
27085 H 26.70256788478042 64.53018601890793 110.57905628933892 H 0.0 **** 0.06
27086 C 113.60034100886901 11.050561545793823 48.829269231087295 C 0.0 **** -0.24
27087 H 114.37126448197364 10.350383778399582 48.50643227150548 H 0.0 **** 0.06
27088 H 112.69218633443694 10.883255820076336 48.2501384581183 H 0.0 **** 0.06
27089 H 113.94768235134865 12.071837959780282 48.67292650884256 H 0.0 **** 0.06
27090 H 113.3909920970361 10.89585534248658 49.88834555939652 H 0.0 **** 0.06
27091 C 95.95579721567773 85.41276449355996 76.67567648519574 C 0.0 **** -0.24
27092 H 95.31533118392224 84.57644079407976 76.9522815943796 H 0.0 **** 0.06
27093 H 95.36949899833678 86.33189274504386 76.66677382900195 H 0.0 **** 0.06
27094 H 96.37390383667693 85.23839102160608 75.68433985867657 H 0.0 **** 0.06
27095 H 96.76553269540912 85.50507834213852 77.3998430442144 H 0.0 **** 0.06
27096 C 81.39235418777048 2.2736671924243694 48.73309238599897 C 0.0 **** -0.24
27097 H 82.43581582603179 2.590057153987857 48.71417574147922 H 0.0 **** 0.06
27098 H 81.11153412715544 2.00987487219561 49.75282778624659 H 0.0 **** 0.06
27099 H 81.26445776115679 1.4069851225731327 48.08449060709726 H 0.0 **** 0.06
27100 H 80.7597901119691 3.088015173321537 48.380458583346055 H 0.0 **** 0.06
27101 C 54.58220123116388 93.55867140904812 44.19644143623429 C 0.0 **** -0.24
27102 H 54.503468204730694 94.62471707985779 44.40938110200481 H 0.0 **** 0.06
27103 H 55.60786959216781 93.31800786902232 43.91694002471369 H 0.0 **** 0.06
27104 H 53.9113421416165 93.30184911506123 43.376206103484286 H 0.0 **** 0.06
27105 H 54.303849655844004 92.99030002516287 45.08412604439085 H 0.0 **** 0.06
27106 C 113.91434834329806 101.23262749088707 114.30900512263467 C 0.0 **** -0.24
27107 H 113.52659396449369 101.28082270547043 115.32699696141727 H 0.0 **** 0.06
27108 H 114.63668895623906 102.0353377156743 114.15720602771478 H 0.0 **** 0.06
27109 H 113.09201038399043 101.3442849553872 113.6017198119457 H 0.0 **** 0.06
27110 H 114.40101443212674 100.26968604532675 114.15092122879715 H 0.0 **** 0.06
27111 C 21.375059007153254 96.20778240731832 85.14797168826351 C 0.0 **** -0.24
27112 H 22.10062628909543 95.56932186456064 84.64518370899748 H 0.0 **** 0.06
27113 H 21.29875106727536 95.91619258070912 86.19532216555763 H 0.0 **** 0.06
27114 H 20.401955090187244 96.09954685825011 84.66822858748264 H 0.0 **** 0.06
27115 H 21.698292175314236 97.24705315671753 85.0823421016031 H 0.0 **** 0.06
27116 C 65.18206786446947 10.844539531956713 22.00039055150728 C 0.0 **** -0.24
27117 H 65.54838427504407 11.31429120158441 22.91371649502031 H 0.0 **** 0.06
27118 H 65.60539546802525 11.35478993597934 21.134951437247423 H 0.0 **** 0.06
27119 H 64.09474922599966 10.913907220335432 21.96814350330061 H 0.0 **** 0.06
27120 H 65.47974621859646 9.796078138107418 21.985834731002512 H 0.0 **** 0.06
27121 C 45.42868559635417 62.60728469992153 51.731468816315456 C 0.0 **** -0.24
27122 H 45.72582996171985 63.5717089854702 52.14404077776064 H 0.0 **** 0.06
27123 H 44.61210154408832 62.194109742524766 52.325358228436755 H 0.0 **** 0.06
27124 H 46.27745345226157 61.924768208715896 51.75550753003088 H 0.0 **** 0.06
27125 H 45.09762943379286 62.73952338653135 50.7007033717468 H 0.0 **** 0.06
27126 C 17.699652002000335 74.11866808044678 22.584800733044858 C 0.0 **** -0.24
27127 H 18.383261256588185 74.50225511055888 21.827402589935332 H 0.0 **** 0.06
27128 H 16.679119973534625 74.40456882402867 22.329014210585697 H 0.0 **** 0.06
27129 H 17.961430729212964 74.53816088196015 23.556966534168723 H 0.0 **** 0.06
27130 H 17.773523848930495 73.03237959394178 22.62618660331637 H 0.0 **** 0.06
27131 C 9.877091180388675 5.875063517050149 108.94682523309953 C 0.0 **** -0.24
27132 H 9.805121964959142 6.89443059357243 108.5663757372362 H 0.0 **** 0.06
27133 H 9.188745974318124 5.750569716191578 109.7827993619081 H 0.0 **** 0.06
27134 H 10.89588142441471 5.683768102384599 109.28231891793178 H 0.0 **** 0.06
27135 H 9.61715690250594 5.1730706357222545 108.15397355341506 H 0.0 **** 0.06
27136 C 13.71148070759699 113.93191834424033 17.063001194394502 C 0.0 **** -0.24
27137 H 13.604060135049139 114.3809056886976 18.05007095650862 H 0.0 **** 0.06
27138 H 12.74928595941904 113.53503732982594 16.73800681583441 H 0.0 **** 0.06
27139 H 14.441404080193422 113.12406681105094 17.108468800520797 H 0.0 **** 0.06
27140 H 14.051061080843283 114.68865320559112 16.35536772685802 H 0.0 **** 0.06
27141 C 30.108414060145563 59.6775315462574 32.22419180831923 C 0.0 **** -0.24
27142 H 31.179849754059937 59.47979401747 32.23971426487708 H 0.0 **** 0.06
27143 H 29.90064517052985 60.594645173582734 32.775756197047684 H 0.0 **** 0.06
27144 H 29.578722931322716 58.84533181367908 32.68949769944466 H 0.0 **** 0.06
27145 H 29.77477050673432 59.78903368163063 31.192177824232232 H 0.0 **** 0.06
27146 C 8.897751619843657 83.18889471295043 42.16807561559156 C 0.0 **** -0.24
27147 H 7.891061668942751 82.77252095971835 42.216931245882066 H 0.0 **** 0.06
27148 H 9.113340051640016 83.72582798726194 43.09176595820526 H 0.0 **** 0.06
27149 H 8.965671728674785 83.87492094036071 41.32388758475747 H 0.0 **** 0.06
27150 H 9.618259952280884 82.38094974140392 42.039805392324666 H 0.0 **** 0.06
27151 C 40.253616127873954 16.36897739484298 98.02492572068013 C 0.0 **** -0.24
27152 H 41.014562444864204 16.08131470720781 98.75119324537792 H 0.0 **** 0.06
27153 H 39.73233671379977 15.478234445329043 97.67343123313404 H 0.0 **** 0.06
27154 H 40.72845141001321 16.870543824771516 97.18154315396282 H 0.0 **** 0.06
27155 H 39.54060600551461 17.04650746465352 98.49583675546236 H 0.0 **** 0.06
27156 C 32.97260154896591 17.868941517407507 15.638024601303641 C 0.0 **** -0.24
27157 H 33.84963607940304 18.435229620143105 15.323981914230785 H 0.0 **** 0.06
27158 H 32.59596353973561 17.285712552666126 14.797291946228711 H 0.0 **** 0.06
27159 H 32.19831966723535 18.55729960369689 15.977339063421823 H 0.0 **** 0.06
27160 H 33.24545137432986 17.19826164312451 16.452865724101684 H 0.0 **** 0.06
27161 C 36.10859190302967 80.94394289094106 61.558317080185134 C 0.0 **** -0.24
27162 H 36.66198006608537 80.32739181782591 62.267503907279604 H 0.0 **** 0.06
27163 H 35.30772570111515 81.46755418586577 62.08082653957342 H 0.0 **** 0.06
27164 H 35.682530873884765 80.30943708148914 60.781267573119976 H 0.0 **** 0.06
27165 H 36.78337061799393 81.67037944469567 61.105234084262634 H 0.0 **** 0.06
27166 C 105.55468021612424 14.252466504927341 95.4107922603468 C 0.0 **** -0.24
27167 H 106.23983596188356 13.511702815230137 94.99916949612191 H 0.0 **** 0.06
27168 H 104.77443390747072 14.469889697396262 94.68206366623292 H 0.0 **** 0.06
27169 H 106.10318805862207 15.166175054874792 95.640901875954 H 0.0 **** 0.06
27170 H 105.10229266465132 13.860813504767666 96.32216925824093 H 0.0 **** 0.06
27171 C 0.6320124499925441 15.353227261166513 28.69923140631471 C 0.0 **** -0.24
27172 H 0.7536908810189402 14.660473171828155 29.53161873797285 H 0.0 **** 0.06
27173 H 0.6340109137296821 14.797969514259929 27.76142951282941 H 0.0 **** 0.06
27174 H 1.4550648681274936 16.068859324444016 28.699578796841934 H 0.0 **** 0.06
27175 H -0.3128325296310095 15.886266400132818 28.805305959061457 H 0.0 **** 0.06
27176 C 26.0611376576716 49.44787962477133 70.14434361152661 C 0.0 **** -0.24
27177 H 26.943285355112387 50.07835349235597 70.25172917556077 H 0.0 **** 0.06
27178 H 25.99709562757461 48.76585000296524 70.9936126645116 H 0.0 **** 0.06
27179 H 26.13515928550227 48.87266547007991 69.22079550032169 H 0.0 **** 0.06
27180 H 25.169122725567547 50.07367213051904 70.11266266990489 H 0.0 **** 0.06
27181 C 40.502030694069674 38.9655004783377 114.69734686674417 C 0.0 **** -0.24
27182 H 39.840262688858445 39.617022650852675 115.26714461664523 H 0.0 **** 0.06
27183 H 40.65586372511186 39.384658626168886 113.70254614968496 H 0.0 **** 0.06
27184 H 40.05179704151473 37.97619458523417 114.6098075293628 H 0.0 **** 0.06
27185 H 41.460755770116066 38.884036888558455 115.2090630521933 H 0.0 **** 0.06
27186 C 68.15690353386384 38.995642924588765 58.46832820958295 C 0.0 **** -0.24
27187 H 68.95553430119966 39.49734560009506 59.014052358705015 H 0.0 **** 0.06
27188 H 68.51243899547546 38.028769697698976 58.11273680924066 H 0.0 **** 0.06
27189 H 67.85841815919707 39.60844644700819 57.61728888068296 H 0.0 **** 0.06
27190 H 67.30211995431253 38.849375944698465 59.127708598678936 H 0.0 **** 0.06
27191 C 117.25542039561554 9.363560706006922 19.801082088241287 C 0.0 **** -0.24
27192 H 116.44969683117628 10.03463712184206 20.097530246972582 H 0.0 **** 0.06
27193 H 118.11438163026122 9.516079912815524 20.455466629637442 H 0.0 **** 0.06
27194 H 117.54273323427617 9.571969760511678 18.77083137758757 H 0.0 **** 0.06
27195 H 116.91645529252082 8.330504048018632 19.881674882850575 H 0.0 **** 0.06
27196 C 17.63968736471884 111.50774434211323 49.80574307174865 C 0.0 **** -0.24
27197 H 17.43390693163758 112.1617820853966 50.653988733385276 H 0.0 **** 0.06
27198 H 17.12766862630025 111.88763512522658 48.9220715660982 H 0.0 **** 0.06
27199 H 17.28347056822173 110.50182736252643 50.02906173245397 H 0.0 **** 0.06
27200 H 18.71363587015361 111.48009651841642 49.62082744858881 H 0.0 **** 0.06
27201 C 28.20817093641231 13.201740203031399 88.39825370806884 C 0.0 **** -0.24
27202 H 28.298830384815908 14.216820742668592 88.01193399987713 H 0.0 **** 0.06
27203 H 29.07249850196458 12.973326633814285 89.02211882968001 H 0.0 **** 0.06
27204 H 28.16475576911361 12.499222148292478 87.56660774150703 H 0.0 **** 0.06
27205 H 27.298354139811842 13.120221792274368 88.99238304879444 H 0.0 **** 0.06
27206 C 13.609971732559302 24.130727486272946 12.027076832747014 C 0.0 **** -0.24
27207 H 14.056194718065996 24.58333252815902 12.913152083863451 H 0.0 **** 0.06
27208 H 13.23665864520413 23.136412027365587 12.276271123534912 H 0.0 **** 0.06
27209 H 14.361779705218083 24.050511559044388 11.242406390543863 H 0.0 **** 0.06
27210 H 12.78545345808962 24.751566803740396 11.678663799244532 H 0.0 **** 0.06
27211 C 90.2184707649646 17.713740908053268 85.56670117073162 C 0.0 **** -0.24
27212 H 90.66381061473771 18.62257027280151 85.16239293021101 H 0.0 **** 0.06
27213 H 90.88149257748057 16.869442470240585 85.37625477750902 H 0.0 **** 0.06
27214 H 89.25622145407382 17.536188780900744 85.08756339121422 H 0.0 **** 0.06
27215 H 90.07448443099787 17.82721243315791 86.64112041429541 H 0.0 **** 0.06
27216 C 79.09447477400147 9.440897753451381 46.810507256145904 C 0.0 **** -0.24
27217 H 78.78234325270975 8.580821656370134 46.21805338186257 H 0.0 **** 0.06
27218 H 79.998921883625 9.870865598566041 46.377748930126025 H 0.0 **** 0.06
27219 H 79.29782349888794 9.122124331629507 47.83299020980873 H 0.0 **** 0.06
27220 H 78.30138476623591 10.18801070556971 46.81274136576102 H 0.0 **** 0.06
27221 C 50.55878371272985 72.09039245661211 104.06138890206785 C 0.0 **** -0.24
27222 H 49.824597667192165 71.28419330054788 104.04958210604278 H 0.0 **** 0.06
27223 H 50.130034044702256 72.97773149561255 103.59599369052006 H 0.0 **** 0.06
27224 H 51.44616400209418 71.78132495039671 103.50805615512729 H 0.0 **** 0.06
27225 H 50.83296774742337 72.3156739936154 105.09158007942355 H 0.0 **** 0.06
27226 C 85.83667093312945 90.0908484512795 56.996799388946755 C 0.0 **** -0.24
27227 H 85.21016736880497 89.36222468282705 56.4819166055436 H 0.0 **** 0.06
27228 H 86.81587974885912 89.65385162439941 57.19187994731689 H 0.0 **** 0.06
27229 H 85.36803354150328 90.36971018284089 57.94040612911749 H 0.0 **** 0.06
27230 H 85.95156034519795 90.97629722429562 56.37255152756936 H 0.0 **** 0.06
27231 C 20.948144576665303 76.97865614623748 87.59297726602861 C 0.0 **** -0.24
27232 H 20.626578691646387 77.87325180996686 87.05978917258349 H 0.0 **** 0.06
27233 H 20.097815645822482 76.30702783957707 87.71935690905181 H 0.0 **** 0.06
27234 H 21.339280790473836 77.25836507865057 88.57004625794085 H 0.0 **** 0.06
27235 H 21.727281434320478 76.47548174836447 87.01938166037769 H 0.0 **** 0.06
27236 C 60.39692452238279 90.5285298250335 106.36727929375431 C 0.0 **** -0.24
27237 H 59.5905498109546 90.51357885688839 107.09957621559585 H 0.0 **** 0.06
27238 H 60.2787513870021 91.39194640724111 105.71309090755199 H 0.0 **** 0.06
27239 H 60.36481465674484 89.61492217019352 105.77287822322322 H 0.0 **** 0.06
27240 H 61.355336083024724 90.59131776292855 106.88295316625647 H 0.0 **** 0.06
27241 C 43.38735130761487 29.11356756162789 116.46958787660537 C 0.0 **** -0.24
27242 H 43.21853208428868 30.121206771231016 116.0916688669822 H 0.0 **** 0.06
27243 H 44.45886484426754 28.917733396675516 116.51951123270638 H 0.0 **** 0.06
27244 H 42.91711292746304 28.391274747256574 115.80194459367509 H 0.0 **** 0.06
27245 H 42.95439506746308 29.021834271535 117.46613065905339 H 0.0 **** 0.06
27246 C 78.01260879263631 85.87077880978717 80.90802858316786 C 0.0 **** -0.24
27247 H 77.25016965025083 86.03916965962978 81.667657152412 H 0.0 **** 0.06
27248 H 78.90052528308252 85.44272952623882 81.37291853263136 H 0.0 **** 0.06
27249 H 78.27021366140414 86.81955399271388 80.43592263092734 H 0.0 **** 0.06
27250 H 77.62865325420427 85.18370103756055 80.15386092392257 H 0.0 **** 0.06
27251 C 50.917102881250486 43.95109029177618 60.45525957444016 C 0.0 **** -0.24
27252 H 49.926754584972855 43.62945658177159 60.13217814793782 H 0.0 **** 0.06
27253 H 50.823456188982476 44.590484213550525 61.33359056848127 H 0.0 **** 0.06
27254 H 51.39817074919256 44.507112232846424 59.65054603564488 H 0.0 **** 0.06
27255 H 51.51930307674792 43.07775287704544 60.703215578992996 H 0.0 **** 0.06
27256 C 55.80861285955632 81.59691559812089 73.0586861311591 C 0.0 **** -0.24
27257 H 55.80609068632447 81.25922786582936 74.0950085701391 H 0.0 **** 0.06
27258 H 55.147161740063666 82.45757289653508 72.95557916758989 H 0.0 **** 0.06
27259 H 55.458162841168075 80.79048579283659 72.41411313047948 H 0.0 **** 0.06
27260 H 56.82071798300615 81.87848083768515 72.77023209609965 H 0.0 **** 0.06
27261 C 90.559777466441 108.57311742006482 49.30407734126378 C 0.0 **** -0.24
27262 H 90.48810837145976 109.0016529672663 50.30437303209245 H 0.0 **** 0.06
27263 H 90.6589679770616 109.37572074912688 48.57224143385042 H 0.0 **** 0.06
27264 H 89.66017064752299 107.99565213324067 49.0915874077256 H 0.0 **** 0.06
27265 H 91.43141236362891 107.92159044912779 49.24919809884034 H 0.0 **** 0.06
27266 C 8.962863416428178 14.489977544835654 52.06689621243423 C 0.0 **** -0.24
27267 H 9.491795152201888 14.18431449802 52.96893879364322 H 0.0 **** 0.06
27268 H 7.919947401471546 14.179127934535842 52.133756618712106 H 0.0 **** 0.06
27269 H 9.426472846565503 14.0242083308504 51.1971629676977 H 0.0 **** 0.06
27270 H 9.0129410146682 15.574676388463502 51.9674614468374 H 0.0 **** 0.06
27271 C 20.248130713410177 104.84428136926573 5.050369517866898 C 0.0 **** -0.24
27272 H 21.09996686156279 104.86652695227477 5.730448859347405 H 0.0 **** 0.06
27273 H 19.32981588110519 104.7064947510205 5.622125890510091 H 0.0 **** 0.06
27274 H 20.366091614584377 104.02058152352694 4.346870894883125 H 0.0 **** 0.06
27275 H 20.196893642753196 105.78568997152445 4.502523528027382 H 0.0 **** 0.06
27276 C 22.195364840605393 117.07932120312455 83.41416440909086 C 0.0 **** -0.24
27277 H 21.460398659165946 117.6582979581279 82.85443212227159 H 0.0 **** 0.06
27278 H 21.68340031837893 116.44090610786033 84.1334480817437 H 0.0 **** 0.06
27279 H 22.866428457581875 117.75764322623668 83.9421932833286 H 0.0 **** 0.06
27280 H 22.77119475421847 116.46193577091671 82.72525972559595 H 0.0 **** 0.06
27281 C 36.34623835591023 61.22695854181202 1.084969427390206 C 0.0 **** -0.24
27282 H 36.07456886891468 60.657606706546225 0.19578453279058294 H 0.0 **** 0.06
27283 H 35.57706027715986 61.972841464662416 1.2870371365434607 H 0.0 **** 0.06
27284 H 37.30148474372511 61.72470639752073 0.9203549211572408 H 0.0 **** 0.06
27285 H 36.430263418273405 60.55144834370041 1.9367113915257619 H 0.0 **** 0.06
27286 C 106.57357495234601 59.77350401787955 115.54069888523657 C 0.0 **** -0.24
27287 H 107.50856817924188 59.28676959494317 115.81537641745304 H 0.0 **** 0.06
27288 H 106.06796129922157 59.18256370540731 114.77651632018537 H 0.0 **** 0.06
27289 H 106.78257532234738 60.769260647153494 115.15133649046804 H 0.0 **** 0.06
27290 H 105.93454663792147 59.85441088036374 116.42031271681488 H 0.0 **** 0.06
27291 C 114.44543093549262 77.54154209194527 3.2928120317908878 C 0.0 **** -0.24
27292 H 113.50098549148447 77.01124359432828 3.410768878473643 H 0.0 **** 0.06
27293 H 114.26354390448057 78.61657135875734 3.308426322674336 H 0.0 **** 0.06
27294 H 114.90119408164523 77.26302617084886 2.342267215420476 H 0.0 **** 0.06
27295 H 115.11669190929058 77.27409375837362 4.109769648379004 H 0.0 **** 0.06
27296 C 115.43241037342158 88.98965376385252 80.53076189862571 C 0.0 **** -0.24
27297 H 115.27129923401974 89.54581575267457 79.60676478430028 H 0.0 **** 0.06
27298 H 115.40866162358083 89.67680844941805 81.37654556115706 H 0.0 **** 0.06
27299 H 116.4029313843952 88.49428615194017 80.49178103740746 H 0.0 **** 0.06
27300 H 114.646632467919 88.24309601072804 80.64530081207019 H 0.0 **** 0.06
27301 C 44.11776610804668 102.7237593466937 65.18050277638537 C 0.0 **** -0.24
27302 H 44.00955205323942 103.51694800276928 64.44078929167563 H 0.0 **** 0.06
27303 H 44.693654577831865 103.09553194782282 66.02943110991512 H 0.0 **** 0.06
27304 H 44.636862210769266 101.87656184418694 64.73197271767421 H 0.0 **** 0.06
27305 H 43.131400522758724 102.40794396399389 65.52124635165231 H 0.0 **** 0.06
27306 C 31.819792100031485 82.10900630978975 70.97473530952985 C 0.0 **** -0.24
27307 H 32.81374026145624 82.47821824359391 71.22531884349334 H 0.0 **** 0.06
27308 H 31.706399610723587 82.07707385608902 69.89121603483184 H 0.0 **** 0.06
27309 H 31.067403189126487 82.77297839489958 71.39943581607633 H 0.0 **** 0.06
27310 H 31.691777460698205 81.10555595481463 71.3833480027348 H 0.0 **** 0.06
27311 C 74.27420495200923 85.81339959333334 35.31700599517249 C 0.0 **** -0.24
27312 H 75.21978564257259 85.80180996852764 34.77503791431662 H 0.0 **** 0.06
27313 H 74.44577733913164 85.5185893724861 36.3522153524456 H 0.0 **** 0.06
27314 H 73.5802095464501 85.11532746649993 34.84998009626409 H 0.0 **** 0.06
27315 H 73.85296715044038 86.81835015894393 35.29049859044885 H 0.0 **** 0.06
27316 C 57.72377389449912 90.22062789695605 48.73144922383028 C 0.0 **** -0.24
27317 H 57.21661245663438 90.71919087545092 47.905995563134695 H 0.0 **** 0.06
27318 H 57.22180859419768 90.4660249203138 49.66686873106272 H 0.0 **** 0.06
27319 H 58.759824198393744 90.55401219185194 48.7757454487666 H 0.0 **** 0.06
27320 H 57.69533559590076 89.14131291578389 48.57583716876434 H 0.0 **** 0.06
27321 C 26.166593164662103 61.34607588716074 104.00788589485393 C 0.0 **** -0.24
27322 H 26.206283159661822 62.434630812630445 103.97497056484303 H 0.0 **** 0.06
27323 H 25.52303135369253 60.98145308211167 103.20744666639965 H 0.0 **** 0.06
27324 H 25.767510839491678 61.026337761609824 104.97093493223147 H 0.0 **** 0.06
27325 H 27.171129195908918 60.9432788257547 103.87893066784767 H 0.0 **** 0.06
27326 C 44.751200007654774 58.11481796704402 36.40064787816999 C 0.0 **** -0.24
27327 H 45.096339183434026 57.31977334058598 35.739529453259976 H 0.0 **** 0.06
27328 H 45.45930112422579 58.943901071644234 36.372761158024474 H 0.0 **** 0.06
27329 H 44.678369618031454 57.73318379067064 37.42000344524922 H 0.0 **** 0.06
27330 H 43.77179710822092 58.461305459663436 36.07116808831003 H 0.0 **** 0.06
27331 C 17.78396477659291 98.94257587928067 79.48602514811071 C 0.0 **** -0.24
27332 H 18.51807886237623 98.27449177288003 79.03427435681522 H 0.0 **** 0.06
27333 H 16.928355623594882 98.36169032443559 79.83173539076799 H 0.0 **** 0.06
27334 H 17.453481186047213 99.67238657548197 78.74702615953169 H 0.0 **** 0.06
27335 H 18.238064423888204 99.46051134498006 80.33113399690123 H 0.0 **** 0.06
27336 C 83.68045055608411 3.8995469703656056 12.480701897982442 C 0.0 **** -0.24
27337 H 82.77297126087731 4.218302794007457 12.993532887578027 H 0.0 **** 0.06
27338 H 83.42805341815915 3.1535063512629904 11.72746247908782 H 0.0 **** 0.06
27339 H 84.37282587454163 3.46722326879879 13.203226096827848 H 0.0 **** 0.06
27340 H 84.14751032287899 4.7598289809093615 12.000416927667459 H 0.0 **** 0.06
27341 C 40.18036140425443 58.90915234179736 85.09073812994228 C 0.0 **** -0.24
27342 H 39.95730319043395 57.87914277769034 84.81191575151587 H 0.0 **** 0.06
27343 H 39.95769116326801 59.05546779763713 86.1479606022418 H 0.0 **** 0.06
27344 H 39.57160546262611 59.587494011930865 84.49332845172864 H 0.0 **** 0.06
27345 H 41.23532406260961 59.11378810291075 84.90924007450596 H 0.0 **** 0.06
27346 C 76.00645925044898 74.19648905395366 102.08751572519233 C 0.0 **** -0.24
27347 H 76.09245815903779 75.08841895243589 102.70960407910297 H 0.0 **** 0.06
27348 H 75.14687591561167 74.29767916423447 101.4241638705046 H 0.0 **** 0.06
27349 H 75.8727338965958 73.32194818408573 102.72432917800595 H 0.0 **** 0.06
27350 H 76.91294356929853 74.0796547825461 101.49466293746582 H 0.0 **** 0.06
27351 C 117.70233118866173 71.37973455575664 10.421294317994636 C 0.0 **** -0.24
27352 H 116.62126301632975 71.30442347593615 10.53407001778055 H 0.0 **** 0.06
27353 H 118.06112463223351 70.55787803449513 9.801205834816813 H 0.0 **** 0.06
27354 H 118.17404268568626 71.32822454273241 11.403197888339093 H 0.0 **** 0.06
27355 H 117.95246886555515 72.32889486313724 9.947469017056136 H 0.0 **** 0.06
27356 C 103.92082002225368 40.41194146451647 117.67289099339047 C 0.0 **** -0.24
27357 H 103.74604395261662 41.487376004308366 117.71260848772296 H 0.0 **** 0.06
27358 H 104.97768607159122 40.20944962644637 117.84866876001632 H 0.0 **** 0.06
27359 H 103.63581799728968 40.03325318118513 116.69177960989279 H 0.0 **** 0.06
27360 H 103.32293940182927 39.91885081004499 118.44024424788816 H 0.0 **** 0.06
27361 C 100.12161945608403 28.392558669552905 69.78748072216433 C 0.0 **** -0.24
27362 H 100.8140311350254 27.58327586118247 70.0207895589827 H 0.0 **** 0.06
27363 H 100.66683574137824 29.21346587983961 69.32241827007391 H 0.0 **** 0.06
27364 H 99.65033789229076 28.74229615198758 70.70608398752924 H 0.0 **** 0.06
27365 H 99.35679306376747 28.028973346527643 69.10195259497524 H 0.0 **** 0.06
27366 C 68.47410488896787 75.13773119974667 7.706824273468129 C 0.0 **** -0.24
27367 H 68.03121849553793 76.11556191212293 7.895316431789553 H 0.0 **** 0.06
27368 H 67.87540977735557 74.36684506228448 8.192181158227754 H 0.0 **** 0.06
27369 H 69.48858892431599 75.11592957087075 8.106641084578143 H 0.0 **** 0.06
27370 H 68.50231756570082 74.95339313609355 6.632828882143485 H 0.0 **** 0.06
27371 C 84.93526491937462 42.48092120643988 6.869657347824436 C 0.0 **** -0.24
27372 H 86.01627878229883 42.346746640937106 6.82551202947678 H 0.0 **** 0.06
27373 H 84.47501764049747 41.58402798974558 7.286433879556554 H 0.0 **** 0.06
27374 H 84.54937685861933 42.65287055844516 5.8643322980303445 H 0.0 **** 0.06
27375 H 84.70031470439613 43.337647527443906 7.500843489834942 H 0.0 **** 0.06
27376 C 86.58350848433602 33.67593109368991 105.56833003101175 C 0.0 **** -0.24
27377 H 86.48404436303645 32.68706953615802 106.01725134508945 H 0.0 **** 0.06
27378 H 87.18039828228461 34.312366266391166 106.22168783129842 H 0.0 **** 0.06
27379 H 85.59551722450442 34.11482024351261 105.43561585671736 H 0.0 **** 0.06
27380 H 87.074606022664 33.58607075766028 104.59918250856052 H 0.0 **** 0.06
27381 C 39.0200420644166 46.22234494003831 82.01024064328021 C 0.0 **** -0.24
27382 H 38.31346120272394 46.94967563605414 81.61030049707853 H 0.0 **** 0.06
27383 H 39.862099547122114 46.74470552081712 82.46419458635219 H 0.0 **** 0.06
27384 H 39.379953628955775 45.5846767585538 81.20245443467343 H 0.0 **** 0.06
27385 H 38.52277684756643 45.60932280978287 82.76189664066473 H 0.0 **** 0.06
27386 C 110.74309449334133 1.8354135059169305 16.354795432917683 C 0.0 **** -0.24
27387 H 111.37270895861005 2.7098754329791177 16.520583130402656 H 0.0 **** 0.06
27388 H 111.35147571832617 0.9331694768282421 16.40948099996166 H 0.0 **** 0.06
27389 H 110.28021501926378 1.903953161441006 15.3703567727228 H 0.0 **** 0.06
27390 H 109.96698385816164 1.7980214459946975 17.119588684305114 H 0.0 **** 0.06
27391 C 68.27041189955446 64.64438527386949 98.54625969143754 C 0.0 **** -0.24
27392 H 68.91819543871236 64.28386622402655 99.34477206993705 H 0.0 **** 0.06
27393 H 68.52438220872102 64.13661875332934 97.61510133384144 H 0.0 **** 0.06
27394 H 68.40867823766939 65.71925438755017 98.42390587968083 H 0.0 **** 0.06
27395 H 67.23039171311473 64.43780173057209 98.80125948229079 H 0.0 **** 0.06
27396 C 110.16582858464811 104.44538298029036 22.12649432546894 C 0.0 **** -0.24
27397 H 109.79333365969632 103.71940232273803 22.849830511786706 H 0.0 **** 0.06
27398 H 110.45721532041244 105.35921383003111 22.645372522533506 H 0.0 **** 0.06
27399 H 109.38191485599987 104.67210267209549 21.403801428893104 H 0.0 **** 0.06
27400 H 111.0295398563076 104.03033777913927 21.607210319854033 H 0.0 **** 0.06
27401 C 2.1142339276540554 96.65196617719255 45.34939425782426 C 0.0 **** -0.24
27402 H 1.235432436940016 96.14822372604306 44.945791605078114 H 0.0 **** 0.06
27403 H 2.1202242329944454 96.55628307528812 46.435429000487716 H 0.0 **** 0.06
27404 H 2.0840017787612055 97.70719569239984 45.076886843872444 H 0.0 **** 0.06
27405 H 3.0145158558668754 96.19563950770666 44.938019754546644 H 0.0 **** 0.06
27406 C 60.180802723123804 60.54389207280721 3.238610606501018 C 0.0 **** -0.24
27407 H 61.06016447201398 60.91292515094287 3.765883813270767 H 0.0 **** 0.06
27408 H 59.83244830655866 59.625197468847915 3.711763922083712 H 0.0 **** 0.06
27409 H 60.43905382566555 60.340794703604075 2.1987897284796976 H 0.0 **** 0.06
27410 H 59.3916139442818 61.29443947733077 3.2769538631534214 H 0.0 **** 0.06
27411 C 78.38870588968075 104.66872420540571 65.63095618864006 C 0.0 **** -0.24
27412 H 79.32054715140535 104.10801877144104 65.54895663396567 H 0.0 **** 0.06
27413 H 78.46909480436699 105.38726507029628 66.4471199363135 H 0.0 **** 0.06
27414 H 77.56830751773452 103.9796272252155 65.83130445843241 H 0.0 **** 0.06
27415 H 78.20023425374603 105.1969181004778 64.6969914437795 H 0.0 **** 0.06
27416 C 53.203256388029615 65.59374410872388 19.786427925578693 C 0.0 **** -0.24
27417 H 52.3334347648979 65.68771548259593 20.438003250034825 H 0.0 **** 0.06
27418 H 54.02952942767104 65.15489111480323 20.346528396313374 H 0.0 **** 0.06
27419 H 53.49321734214047 66.58023115332526 19.423901295150216 H 0.0 **** 0.06
27420 H 52.955659632932765 64.9536894900323 18.94047141714134 H 0.0 **** 0.06
27421 C 115.64685434410211 103.83586315137043 94.06784861849886 C 0.0 **** -0.24
27422 H 114.79477876437885 103.45238800441365 94.62898369929621 H 0.0 **** 0.06
27423 H 115.3859805544386 104.79393486246789 93.61870052781683 H 0.0 **** 0.06
27424 H 115.91399599509379 103.12741272880365 93.2837211368545 H 0.0 **** 0.06
27425 H 116.49420328811102 103.96857743700852 94.74114075678767 H 0.0 **** 0.06
27426 C 18.976996030090504 10.216826359813524 61.58554228276367 C 0.0 **** -0.24
27427 H 19.002570819667653 11.302291613189936 61.68105499264925 H 0.0 **** 0.06
27428 H 17.944804772075372 9.88638578311668 61.47003560531479 H 0.0 **** 0.06
27429 H 19.407578194682003 9.763108224147643 62.4782614033939 H 0.0 **** 0.06
27430 H 19.55511338242121 9.916482856907578 60.710884775267374 H 0.0 **** 0.06
27431 C 71.36267609610442 15.607839230608022 103.80566756533534 C 0.0 **** -0.24
27432 H 72.36087671568293 15.186622599684 103.91974020988158 H 0.0 **** 0.06
27433 H 71.43380532662948 16.591229765466323 103.34227876083474 H 0.0 **** 0.06
27434 H 70.89388706819756 15.70053653435204 104.78594645253582 H 0.0 **** 0.06
27435 H 70.7619172730343 14.9517177905538 103.17654594846522 H 0.0 **** 0.06
27436 C 11.444385376570693 111.93127162539547 117.08588417818898 C 0.0 **** -0.24
27437 H 11.83730963061673 112.9073944635732 117.37081455821836 H 0.0 **** 0.06
27438 H 11.321015398950482 111.89094931976017 116.00435820148526 H 0.0 **** 0.06
27439 H 10.480252231628025 111.7735232300266 117.56854580981485 H 0.0 **** 0.06
27440 H 12.140283863266124 111.1541495541149 117.40214065346662 H 0.0 **** 0.06
27441 C 42.45345199624743 60.63329229000706 112.3223454879242 C 0.0 **** -0.24
27442 H 42.86871072185673 61.611780281166745 112.56468211463347 H 0.0 **** 0.06
27443 H 42.916597161410145 60.258660030459254 111.40901649506651 H 0.0 **** 0.06
27444 H 41.376946510542346 60.722361899883 112.17369099082197 H 0.0 **** 0.06
27445 H 42.65153763751906 59.94155505667601 113.14122536903355 H 0.0 **** 0.06
27446 C 107.75323047819822 40.38170235334957 41.02416143262004 C 0.0 **** -0.24
27447 H 108.64662546078415 40.99484561543488 41.142670153306845 H 0.0 **** 0.06
27448 H 108.02757067127251 39.42020507093696 40.58919125828618 H 0.0 **** 0.06
27449 H 107.04753218528003 40.89096439724557 40.36810454507972 H 0.0 **** 0.06
27450 H 107.29230698026512 40.22076469325145 41.998861481233206 H 0.0 **** 0.06
27451 C 10.518992840055546 74.63598398857496 30.468797733773954 C 0.0 **** -0.24
27452 H 11.317249186533559 75.158418061149 29.941848971436627 H 0.0 **** 0.06
27453 H 10.561579330931409 73.5731696549363 30.23050451885635 H 0.0 **** 0.06
27454 H 9.554862189854646 75.04067911498342 30.161011264520056 H 0.0 **** 0.06
27455 H 10.644372998750214 74.77319202390237 31.543343872420223 H 0.0 **** 0.06
27456 C 46.85577072344199 102.67701996956134 23.291228731602338 C 0.0 **** -0.24
27457 H 46.487806474204206 103.6852683614012 23.47973874590945 H 0.0 **** 0.06
27458 H 47.86948353688055 102.72887967161262 22.891506842997373 H 0.0 **** 0.06
27459 H 46.20606944499045 102.18125340315112 22.570443541612015 H 0.0 **** 0.06
27460 H 46.86193690894973 102.11167273332808 24.223524871547532 H 0.0 **** 0.06
27461 C 87.69895834286086 79.21235066122554 112.31832392497418 C 0.0 **** -0.24
27462 H 88.7876778803319 79.17647900731541 112.29357498336621 H 0.0 **** 0.06
27463 H 87.29530987557246 78.42268272115874 111.6846757390401 H 0.0 **** 0.06
27464 H 87.35905492210787 80.18148080955791 111.95189924951156 H 0.0 **** 0.06
27465 H 87.35408269389148 79.07037197463072 113.34258288365793 H 0.0 **** 0.06
27466 C 11.896132425268462 29.954815629482056 73.91864800358431 C 0.0 **** -0.24
27467 H 10.8741234036099 30.29407796655562 74.0853037954042 H 0.0 **** 0.06
27468 H 12.417681752018211 29.88882027521487 74.8742863089544 H 0.0 **** 0.06
27469 H 12.413188316454665 30.663244495711055 73.2707518946792 H 0.0 **** 0.06
27470 H 11.880504191856204 28.972868762159436 73.44424020359591 H 0.0 **** 0.06
27471 C 21.48051604604595 21.00093262974883 53.69388736171915 C 0.0 **** -0.24
27472 H 20.930968881374696 21.52598079907679 52.9131762439973 H 0.0 **** 0.06
27473 H 22.44782978355039 20.681025029816226 53.304989047460694 H 0.0 **** 0.06
27474 H 20.910707391898228 20.128552768692742 54.01556905161942 H 0.0 **** 0.06
27475 H 21.632825279862487 21.667345051936252 54.542930914505035 H 0.0 **** 0.06
27476 C 115.3982150413104 82.13127680871543 101.48407550561382 C 0.0 **** -0.24
27477 H 115.69192800763574 83.00673663722125 102.06263692150972 H 0.0 **** 0.06
27478 H 116.17288079585124 81.36817303636269 101.56152994367227 H 0.0 **** 0.06
27479 H 115.26776293098337 82.41299665232907 100.4400167674921 H 0.0 **** 0.06
27480 H 114.45908988571233 81.7365502452451 101.8745964121685 H 0.0 **** 0.06
27481 C 11.984695211863201 2.0539278082078116 17.468383404146863 C 0.0 **** -0.24
27482 H 13.012029362979202 2.406683407572073 17.37095819710457 H 0.0 **** 0.06
27483 H 11.44651858895023 2.2421057373523006 16.538077701732163 H 0.0 **** 0.06
27484 H 11.495074397786407 2.5834274811571962 18.285101878839015 H 0.0 **** 0.06
27485 H 11.9862589232646 0.9839904638409855 17.677264280619795 H 0.0 **** 0.06
27486 C 21.367582504418124 102.03507377085714 78.48009867147084 C 0.0 **** -0.24
27487 H 20.702121691217428 101.34054790689825 77.96780747213919 H 0.0 **** 0.06
27488 H 21.27667211699162 101.89684822055565 79.55822513116283 H 0.0 **** 0.06
27489 H 21.094255763927833 103.05843690813703 78.22115271981724 H 0.0 **** 0.06
27490 H 22.39599061853272 101.84534242530029 78.17480985475683 H 0.0 **** 0.06
27491 C 83.48388738715028 86.2885663312799 27.836707425744976 C 0.0 **** -0.24
27492 H 84.51783283958383 86.07752338823815 28.108937517294407 H 0.0 **** 0.06
27493 H 82.82506128053143 85.98535506966249 28.651747785957696 H 0.0 **** 0.06
27494 H 83.22481871159852 85.73373159426319 26.93466062150945 H 0.0 **** 0.06
27495 H 83.36665915770249 87.35626696324809 27.652782332535153 H 0.0 **** 0.06
27496 C 15.149134052550963 36.981169466039916 12.979481198348367 C 0.0 **** -0.24
27497 H 14.412094149030736 37.74029055361058 12.71459251348432 H 0.0 **** 0.06
27498 H 15.598753566746112 37.23162216941836 13.941476226827575 H 0.0 **** 0.06
27499 H 15.923709569094527 36.94524274645636 12.214206385612613 H 0.0 **** 0.06
27500 H 14.659572273230182 36.0096803668267 13.048392517379114 H 0.0 **** 0.06
27501 C 43.7649501545039 32.503576955266425 52.86281528976974 C 0.0 **** -0.24
27502 H 44.116844682433054 33.39766962667244 53.37845000970998 H 0.0 **** 0.06
27503 H 43.96021371677794 31.627372220095936 53.482792787255335 H 0.0 **** 0.06
27504 H 44.28957209298197 32.402413309607994 51.91300516224101 H 0.0 **** 0.06
27505 H 42.694218994914834 32.587751764922785 52.679676284441825 H 0.0 **** 0.06
27506 C 114.62929570222161 97.55081567709712 29.009366546478503 C 0.0 **** -0.24
27507 H 113.78398534239739 97.16385464691598 29.577737975168702 H 0.0 **** 0.06
27508 H 114.77093575317255 98.60651680349662 29.240556493967546 H 0.0 **** 0.06
27509 H 114.43341354878447 97.4345175342909 27.943362558508824 H 0.0 **** 0.06
27510 H 115.52975480208548 96.99625314813025 29.274983616620602 H 0.0 **** 0.06
27511 C 70.09105473639664 14.697143080373763 17.78265994729341 C 0.0 **** -0.24
27512 H 70.72801716001555 15.110848673370683 18.56405810740098 H 0.0 **** 0.06
27513 H 70.23810174963745 15.259018104372004 16.85950650034033 H 0.0 **** 0.06
27514 H 69.04712981906295 14.768879169404684 18.089228564383646 H 0.0 **** 0.06
27515 H 70.35099613913741 13.65224667447825 17.618223215859672 H 0.0 **** 0.06
27516 C 56.80958596561263 77.46748829074662 52.80316218869936 C 0.0 **** -0.24
27517 H 56.8888777346321 76.38978818587563 52.95263788445706 H 0.0 **** 0.06
27518 H 56.931798796518166 77.97689461588658 53.75921438937314 H 0.0 **** 0.06
27519 H 55.829770031380264 77.70399403380213 52.38747916446425 H 0.0 **** 0.06
27520 H 57.58673407067826 77.79572302934179 52.113464931880856 H 0.0 **** 0.06
27521 C 63.826596817567896 86.20841810787925 20.055686047065738 C 0.0 **** -0.24
27522 H 63.5344198982777 86.89237943861323 20.85249851799863 H 0.0 **** 0.06
27523 H 64.06276004620403 85.23349348241547 20.48171474654313 H 0.0 **** 0.06
27524 H 64.70410335111376 86.60337540617002 19.5419685260034 H 0.0 **** 0.06
27525 H 63.00585578679094 86.10653003911264 19.346572884691653 H 0.0 **** 0.06
27526 C 47.48721037492831 5.988394714490788 98.67837848795256 C 0.0 **** -0.24
27527 H 47.60184468941293 4.904107117631197 98.68544923331334 H 0.0 **** 0.06
27528 H 47.56605772509795 6.368250476617277 99.69681613568875 H 0.0 **** 0.06
27529 H 46.51164498471246 6.248093834303525 98.26803951414334 H 0.0 **** 0.06
27530 H 48.27035260265649 6.430956496957483 98.06361769660603 H 0.0 **** 0.06
27531 C 45.26118199966379 92.75425220548783 67.841208496555 C 0.0 **** -0.24
27532 H 44.81402825809593 92.19684834713948 68.66354539098819 H 0.0 **** 0.06
27533 H 44.54722835327857 92.82682819065874 67.02093874152487 H 0.0 **** 0.06
27534 H 46.15838842978587 92.23970198452099 67.49884729294587 H 0.0 **** 0.06
27535 H 45.524270241048754 93.75552262115784 68.18237371173188 H 0.0 **** 0.06
27536 C 14.478068968690643 99.74135472436825 53.93922894755775 C 0.0 **** -0.24
27537 H 15.373307050372702 99.60170591031257 53.33294305754876 H 0.0 **** 0.06
27538 H 13.656396102590072 100.06929615762556 53.3023061092789 H 0.0 **** 0.06
27539 H 14.670548047917627 100.49547224279772 54.7017275283082 H 0.0 **** 0.06
27540 H 14.213701303496368 98.79847338614323 54.418216528844596 H 0.0 **** 0.06
27541 C 65.24657414045365 1.3727066188895378 95.92133961631257 C 0.0 **** -0.24
27542 H 65.85735612338974 1.982334587081482 95.25481225068384 H 0.0 **** 0.06
27543 H 64.93289867855438 1.9715126652847914 96.77586084944795 H 0.0 **** 0.06
27544 H 65.83010335964471 0.5198303293793174 96.26881376785718 H 0.0 **** 0.06
27545 H 64.36783854373377 1.0179249308021667 95.38346581114803 H 0.0 **** 0.06
27546 C 48.761069915933035 2.6545220837669206 115.99760978311798 C 0.0 **** -0.24
27547 H 48.6287863189836 3.6970034921627644 115.70955756237237 H 0.0 **** 0.06
27548 H 47.84323062806067 2.101907233564191 115.79382923797635 H 0.0 **** 0.06
27549 H 48.990627854965396 2.598657150797223 117.06210162496603 H 0.0 **** 0.06
27550 H 49.58100755522716 2.220641100951525 115.42656070953137 H 0.0 **** 0.06
27551 C 106.47001881738058 12.161181991567506 61.80135971767377 C 0.0 **** -0.24
27552 H 105.47649804336552 11.713329177512374 61.782388880107 H 0.0 **** 0.06
27553 H 106.9722367447358 11.969496703677738 60.852903341009785 H 0.0 **** 0.06
27554 H 107.04928936435115 11.72447374063633 62.614705332075935 H 0.0 **** 0.06
27555 H 106.37992384676627 13.236935794448428 61.95433115224102 H 0.0 **** 0.06
27556 C 57.46277417270446 39.71819697319029 98.45954101900085 C 0.0 **** -0.24
27557 H 57.27918021346528 40.73370579046107 98.1080659947784 H 0.0 **** 0.06
27558 H 56.571166115114465 39.34140529117116 98.96066542160736 H 0.0 **** 0.06
27559 H 58.29908668489793 39.723028312820816 99.15922785044435 H 0.0 **** 0.06
27560 H 57.70284768187278 39.07852526531613 97.61095966434189 H 0.0 **** 0.06
27561 C 43.49751378088272 111.93634124008952 112.87041240076073 C 0.0 **** -0.24
27562 H 42.657026997218956 112.02584651118187 113.56011991893445 H 0.0 **** 0.06
27563 H 44.390561287100994 112.3572905817833 113.3311588702804 H 0.0 **** 0.06
27564 H 43.27194823837351 112.47751174282442 111.95115657037445 H 0.0 **** 0.06
27565 H 43.66689786488644 110.88438248842391 112.64115845372703 H 0.0 **** 0.06
27566 C 34.7076807052205 14.350659140842168 54.50614393705689 C 0.0 **** -0.24
27567 H 34.41517832353793 13.471274053315213 53.93102665897851 H 0.0 **** 0.06
27568 H 35.26562046983301 15.033770607564847 53.86442156052891 H 0.0 **** 0.06
27569 H 35.33434843446892 14.044363999792381 55.344002181793314 H 0.0 **** 0.06
27570 H 33.815588303312836 14.851573865684301 54.882250517513626 H 0.0 **** 0.06
27571 C 100.06811691731636 30.47797836757627 78.53841576416323 C 0.0 **** -0.24
27572 H 100.49711224270945 31.420404688324425 78.1996442427916 H 0.0 **** 0.06
27573 H 100.71876381587558 29.654907592933625 78.24041279470723 H 0.0 **** 0.06
27574 H 99.08397415950577 30.344620045147792 78.08885355673502 H 0.0 **** 0.06
27575 H 99.97260213853184 30.49205191892554 79.62375505829962 H 0.0 **** 0.06
27576 C 86.03457589231454 65.09096461047363 6.9553047479219 C 0.0 **** -0.24
27577 H 86.61680666283996 64.72730011023384 7.802037312599452 H 0.0 **** 0.06
27578 H 86.10777346758456 66.17782570167594 6.905107998516925 H 0.0 **** 0.06
27579 H 84.99115229115677 64.80217219712046 7.081406674318572 H 0.0 **** 0.06
27580 H 86.42375297665029 64.65743622992943 6.03462573316807 H 0.0 **** 0.06
27581 C 32.20153420962923 85.13303573116167 76.99273855327661 C 0.0 **** -0.24
27582 H 32.07096518604836 84.42583916169548 77.81115180185614 H 0.0 **** 0.06
27583 H 32.79279147414148 84.66972328148347 76.20325077179882 H 0.0 **** 0.06
27584 H 32.71603990087722 86.0209715007581 77.35915428877041 H 0.0 **** 0.06
27585 H 31.225262402843676 85.4150113664777 76.59809100814701 H 0.0 **** 0.06
27586 C 32.45118610008828 27.30716195863986 109.42486782929626 C 0.0 **** -0.24
27587 H 31.428806829772157 27.521139200423463 109.11512943753934 H 0.0 **** 0.06
27588 H 32.651056248611695 26.2414667271784 109.3074189237351 H 0.0 **** 0.06
27589 H 32.58093848037714 27.587978230088616 110.47044812715598 H 0.0 **** 0.06
27590 H 33.1450740767296 27.8772281428423 108.80632547323381 H 0.0 **** 0.06
27591 C 25.601520301666653 108.63995737809739 87.95254612972107 C 0.0 **** -0.24
27592 H 25.55222086107952 109.72802080120343 87.93362424215206 H 0.0 **** 0.06
27593 H 24.607425929970248 108.23438426377965 88.14143873246903 H 0.0 **** 0.06
27594 H 26.28122078202975 108.32151897256077 88.74269408185356 H 0.0 **** 0.06
27595 H 25.966223233276935 108.27600485526199 86.99144209490683 H 0.0 **** 0.06
27596 C 26.32212553880757 70.32323849585964 19.416809505662087 C 0.0 **** -0.24
27597 H 26.307494731835448 71.05336146322264 18.60650520127234 H 0.0 **** 0.06
27598 H 26.769224392210248 69.39486557482127 19.060458635774694 H 0.0 **** 0.06
27599 H 25.30198322783488 70.13055472855302 19.749265840507988 H 0.0 **** 0.06
27600 H 26.907955775491246 70.71510700032695 20.2474408898959 H 0.0 **** 0.06
27601 C 93.82452146016652 110.75475986857487 36.67175193863267 C 0.0 **** -0.24
27602 H 94.10562877115996 110.79352871644443 35.619165483062545 H 0.0 **** 0.06
27603 H 93.0463931665322 110.00352955182136 36.81115067245628 H 0.0 **** 0.06
27604 H 93.44839009537779 111.73042613341764 36.982560909706876 H 0.0 **** 0.06
27605 H 94.69554878437435 110.49304576639227 37.27143570726636 H 0.0 **** 0.06
27606 C 3.9642143827262117 115.15779827101585 34.0755947803726 C 0.0 **** -0.24
27607 H 4.8906965829415725 115.6994117733052 34.26876871855342 H 0.0 **** 0.06
27608 H 3.345463691478372 115.16593556281566 34.973682201743856 H 0.0 **** 0.06
27609 H 4.195536313459542 114.12866617403722 33.80123580305127 H 0.0 **** 0.06
27610 H 3.426783625244383 115.63984021661372 33.259229490665064 H 0.0 **** 0.06
27611 C 43.77417864917808 75.57760685283944 86.41888917691699 C 0.0 **** -0.24
27612 H 43.2629719263179 76.5334174341919 86.29893310926923 H 0.0 **** 0.06
27613 H 44.14091437919578 75.23889267917798 85.4497657581224 H 0.0 **** 0.06
27614 H 43.07865471291336 74.84215035646235 86.82244181317378 H 0.0 **** 0.06
27615 H 44.61341853630063 75.69800114367342 87.10387544777055 H 0.0 **** 0.06
27616 C 55.025083892662565 67.65647050163119 116.5877802084143 C 0.0 **** -0.24
27617 H 55.88241109504776 66.99004349808968 116.48698459327704 H 0.0 **** 0.06
27618 H 55.314754902113066 68.66744820308782 116.30050788715562 H 0.0 **** 0.06
27619 H 54.68594625149899 67.65480770852156 117.62360184141033 H 0.0 **** 0.06
27620 H 54.21903682890152 67.31088394750626 115.94068159095218 H 0.0 **** 0.06
27621 C 41.548884658536196 7.96375945434788 92.51988008429663 C 0.0 **** -0.24
27622 H 40.68768886527772 7.661831537837088 91.9234264517051 H 0.0 **** 0.06
27623 H 41.94985568910198 7.095909825391686 93.04435112884181 H 0.0 **** 0.06
27624 H 41.24275314038039 8.717438281797541 93.24441870025083 H 0.0 **** 0.06
27625 H 42.31616259223847 8.379155874166074 91.86541156428433 H 0.0 **** 0.06
27626 C 30.211147616294483 4.890734640143535 20.865509823995268 C 0.0 **** -0.24
27627 H 30.192057045098153 5.714856615672431 20.153714223390324 H 0.0 **** 0.06
27628 H 31.188195293365794 4.848692634498519 21.347360322662524 H 0.0 **** 0.06
27629 H 30.0242677550805 3.953601959007244 20.341879439620854 H 0.0 **** 0.06
27630 H 29.43967822438438 5.044979976599819 21.62087265490392 H 0.0 **** 0.06
27631 C 104.23413844313654 110.14697174120006 34.28435327265845 C 0.0 **** -0.24
27632 H 103.88044478364034 110.88394645894188 35.00574405516227 H 0.0 **** 0.06
27633 H 103.56459451343193 110.13172940772296 33.4235058685357 H 0.0 **** 0.06
27634 H 104.25006358096815 109.160966280412 34.750542386080184 H 0.0 **** 0.06
27635 H 105.24031016387903 110.41156171868512 33.95839435989777 H 0.0 **** 0.06
27636 C 93.9623102053927 8.571173019606164 15.829987158140966 C 0.0 **** -0.24
27637 H 93.57377287737881 8.429228660512905 16.837947997590106 H 0.0 **** 0.06
27638 H 93.33913110523653 9.290017193515581 15.297179047281361 H 0.0 **** 0.06
27639 H 93.95371554884667 7.618946987685902 15.299817116824897 H 0.0 **** 0.06
27640 H 94.98432688111063 8.946430051343242 15.884710619894008 H 0.0 **** 0.06
27641 C 72.62397660150003 83.87913648600906 106.22742883684685 C 0.0 **** -0.24
27642 H 73.18090391650057 84.30199996763778 105.390870379561 H 0.0 **** 0.06
27643 H 72.36492525393189 84.67311316497089 106.92847380875952 H 0.0 **** 0.06
27644 H 73.23912200100068 83.13397727946816 106.73264612764689 H 0.0 **** 0.06
27645 H 71.71322990889442 83.40794864103376 105.85696145333293 H 0.0 **** 0.06
27646 C 1.0159285764623345 55.91173677244377 98.59135584613682 C 0.0 **** -0.24
27647 H 1.9621510290147626 56.31549738828618 98.95336562667174 H 0.0 **** 0.06
27648 H 0.4803166630413447 55.44489705623207 99.41805538981802 H 0.0 **** 0.06
27649 H 1.2111187009201778 55.16727592405102 97.8188395108329 H 0.0 **** 0.06
27650 H 0.41231354065340753 56.71817250641181 98.17509888657995 H 0.0 **** 0.06
27651 C 12.15806684291476 115.67493717674199 96.69822896930691 C 0.0 **** -0.24
27652 H 12.358979723314096 114.60577447355755 96.6390543810119 H 0.0 **** 0.06
27653 H 11.867052454983188 116.04488479279095 95.7154497897304 H 0.0 **** 0.06
27654 H 13.056676995326171 116.19574196374955 97.03067716796784 H 0.0 **** 0.06
27655 H 11.351800051055491 115.85477785418689 97.40912329436128 H 0.0 **** 0.06
27656 C 18.54806968579271 77.10521181453691 29.6910533889604 C 0.0 **** -0.24
27657 H 18.776991548206126 76.04997851125796 29.542581109309623 H 0.0 **** 0.06
27658 H 19.010185096355315 77.45009862173984 30.616259328332006 H 0.0 **** 0.06
27659 H 17.467908220182522 77.2373416016072 29.75273394893898 H 0.0 **** 0.06
27660 H 18.93763061575868 77.68253088603004 28.852579453625623 H 0.0 **** 0.06
27661 C 24.95578230660442 115.57565129877156 107.60615169127365 C 0.0 **** -0.24
27662 H 24.315463632580077 115.1408887596462 108.37306827468853 H 0.0 **** 0.06
27663 H 24.85657375605524 116.66144650596777 107.62364623725469 H 0.0 **** 0.06
27664 H 24.658521772766335 115.1989385369074 106.62698352666717 H 0.0 **** 0.06
27665 H 25.992829942700894 115.30261671495242 107.80143837454253 H 0.0 **** 0.06
27666 C 95.04978139814804 118.7190792330511 45.43379095875014 C 0.0 **** -0.24
27667 H 94.26826186887985 118.33347473194472 44.77874135014304 H 0.0 **** 0.06
27668 H 95.2679178965193 119.75363898798943 45.16821767368373 H 0.0 **** 0.06
27669 H 95.95100861118613 118.11585891230327 45.317767646858215 H 0.0 **** 0.06
27670 H 94.71145815997363 118.672881908117 46.46855118093117 H 0.0 **** 0.06
27671 C 87.19080943895983 116.78445457946502 98.92811297720212 C 0.0 **** -0.24
27672 H 86.3547815735507 117.22314860497511 99.47155703954257 H 0.0 **** 0.06
27673 H 87.09341983027753 115.69857714703186 98.92785790247748 H 0.0 **** 0.06
27674 H 88.12673736227552 117.06571044346741 99.4110225341719 H 0.0 **** 0.06
27675 H 87.18780625490106 117.1494192350794 97.90005730379872 H 0.0 **** 0.06
27676 C 15.682184004516763 94.78556791661148 34.41248266250389 C 0.0 **** -0.24
27677 H 15.974775104670304 95.45407756164138 35.22247581135119 H 0.0 **** 0.06
27678 H 15.597049797180013 95.35359652659821 33.486052288110585 H 0.0 **** 0.06
27679 H 14.72218591000125 94.32787902172916 34.64837251449134 H 0.0 **** 0.06
27680 H 16.436669935825417 94.00749046341679 34.293819009580545 H 0.0 **** 0.06
27681 C 57.37888704154835 61.248207837159725 5.525526521618644 C 0.0 **** -0.24
27682 H 56.40292012603055 61.56006109927637 5.154404363286659 H 0.0 **** 0.06
27683 H 57.68316857946158 60.33028610664519 5.023194981155115 H 0.0 **** 0.06
27684 H 57.3192760168059 61.072515818206966 6.599907015331752 H 0.0 **** 0.06
27685 H 58.11031172124038 62.032040985478375 5.325898946768916 H 0.0 **** 0.06
27686 C 106.67952036873282 2.3467719400057945 94.44418371533845 C 0.0 **** -0.24
27687 H 106.89585292136121 2.1400648314347563 95.49198709726318 H 0.0 **** 0.06
27688 H 105.81328166865089 1.7621257352527095 94.13014859492966 H 0.0 **** 0.06
27689 H 107.5417195745498 2.074205260781582 93.83459567994089 H 0.0 **** 0.06
27690 H 106.4659728035613 3.408003168971277 94.31955931572998 H 0.0 **** 0.06
27691 C 75.11911144048139 41.96765304984292 10.17975238603023 C 0.0 **** -0.24
27692 H 75.33396074210026 41.50594356770739 11.142669106050676 H 0.0 **** 0.06
27693 H 74.79436533924476 41.201928339575936 9.474299845887828 H 0.0 **** 0.06
27694 H 76.01879884792126 42.45197490297743 9.800696379012635 H 0.0 **** 0.06
27695 H 74.32954645852266 42.709088478433095 10.299882243149767 H 0.0 **** 0.06
27696 C 62.805877564212885 78.57547069995272 72.48705779052742 C 0.0 **** -0.24
27697 H 62.55041295811197 77.52729769685223 72.32970533854467 H 0.0 **** 0.06
27698 H 63.230283450996176 78.98604313366053 71.5708692244956 H 0.0 **** 0.06
27699 H 63.53634038953822 78.65310749049326 73.29286620900376 H 0.0 **** 0.06
27700 H 61.90792229375004 79.13254113299016 72.75406233120563 H 0.0 **** 0.06
27701 C 30.78829570487008 115.75633240386115 29.82771671047624 C 0.0 **** -0.24
27702 H 30.9684927368136 115.49289025763503 30.869934938034277 H 0.0 **** 0.06
27703 H 31.738655778276126 115.96392667005114 29.336280140388567 H 0.0 **** 0.06
27704 H 30.15364294466994 116.64151716317679 29.781118332932607 H 0.0 **** 0.06
27705 H 30.292790572217513 114.92607946850688 29.32357253564612 H 0.0 **** 0.06
27706 C 52.36801220666083 48.91607505401032 101.55370884099452 C 0.0 **** -0.24
27707 H 52.063962290740655 48.06194932030783 100.94908464665258 H 0.0 **** 0.06
27708 H 53.34237466708045 48.716827252930784 102.00147637564947 H 0.0 **** 0.06
27709 H 51.633785970067585 49.082332054731296 102.34234947300592 H 0.0 **** 0.06
27710 H 52.43140655250366 49.802684754647856 100.92403997910358 H 0.0 **** 0.06
27711 C 60.52786411037869 59.29956872671454 93.47609864236676 C 0.0 **** -0.24
27712 H 60.057645637074074 58.36648143250193 93.1669672591035 H 0.0 **** 0.06
27713 H 60.620359174188536 59.96172648887023 92.61552365967026 H 0.0 **** 0.06
27714 H 61.5176492063344 59.09053521157125 93.88272015950685 H 0.0 **** 0.06
27715 H 59.91571762473228 59.778715381198424 94.23975477972098 H 0.0 **** 0.06
27716 C 88.25927173369465 71.62745486719675 30.00708545429967 C 0.0 **** -0.24
27717 H 87.49334534721228 71.13817444820387 30.608806329410072 H 0.0 **** 0.06
27718 H 88.27467046858271 72.6930297401428 30.235837794584597 H 0.0 **** 0.06
27719 H 88.03690552343335 71.48467525017944 28.949956429569966 H 0.0 **** 0.06
27720 H 89.2330150467497 71.19303000812494 30.23585091851598 H 0.0 **** 0.06
27721 C 75.04782653158719 9.237127927474006 77.67007968011686 C 0.0 **** -0.24
27722 H 74.15790923137996 9.410757781979612 77.06537361751734 H 0.0 **** 0.06
27723 H 75.41742108903429 8.227314646023189 77.49114789753631 H 0.0 **** 0.06
27724 H 74.79893035783988 9.352581507071562 78.72445374531074 H 0.0 **** 0.06
27725 H 75.818251954515 9.959934649141587 77.39705619547968 H 0.0 **** 0.06
27726 C 51.620021862801906 42.089296269542615 103.59806135299351 C 0.0 **** -0.24
27727 H 51.29785702914248 42.89650838603109 104.25616621582833 H 0.0 **** 0.06
27728 H 51.223277543468924 42.25876893203417 102.59602260409312 H 0.0 **** 0.06
27729 H 51.249714901241134 41.138646098629636 103.98077734562872 H 0.0 **** 0.06
27730 H 52.709013974043316 42.06639087159522 103.55888118596854 H 0.0 **** 0.06
27731 C 64.69740071533161 6.88286250469028 56.61089317939471 C 0.0 **** -0.24
27732 H 65.45221823141438 7.659414729624359 56.48830561275716 H 0.0 **** 0.06
27733 H 64.1202465603044 7.077298290421965 57.515786251467034 H 0.0 **** 0.06
27734 H 65.18511636896318 5.912109464969149 56.69239455459552 H 0.0 **** 0.06
27735 H 64.0318183428221 6.883316259460344 55.74778225927807 H 0.0 **** 0.06
27736 C 43.92240619485375 58.184546213028625 90.91773686509188 C 0.0 **** -0.24
27737 H 44.38174651781014 59.0511188443613 90.44160879092934 H 0.0 **** 0.06
27738 H 44.67684269761179 57.63839978928098 91.48511530184936 H 0.0 **** 0.06
27739 H 43.497901457615654 57.532448283123415 90.15455957650707 H 0.0 **** 0.06
27740 H 43.131747210545996 58.51753765623798 91.59119192984437 H 0.0 **** 0.06
27741 C 38.50655755515638 28.13055399530632 117.38423970513446 C 0.0 **** -0.24
27742 H 38.667481451328314 28.341879477618193 116.32699062249357 H 0.0 **** 0.06
27743 H 38.31492054094727 29.062653427064618 117.91599668427466 H 0.0 **** 0.06
27744 H 39.39499859677247 27.65226983109587 117.79795386953022 H 0.0 **** 0.06
27745 H 37.65123122962285 27.46526428085376 117.49555885482413 H 0.0 **** 0.06
27746 C 72.18218020026103 42.83098620893935 43.97845026775548 C 0.0 **** -0.24
27747 H 73.22008992546992 42.501046869042575 43.93259167657146 H 0.0 **** 0.06
27748 H 72.08596567098962 43.794004139303254 43.47655104841107 H 0.0 **** 0.06
27749 H 71.87998824391215 42.93252235360293 45.020640741614955 H 0.0 **** 0.06
27750 H 71.54594088610719 42.09814997060651 43.48444720856321 H 0.0 **** 0.06
27751 C 32.43870224166719 14.581483341915447 42.98704697851616 C 0.0 **** -0.24
27752 H 32.3168448879008 13.790982997628177 42.24649950329726 H 0.0 **** 0.06
27753 H 31.77066075198624 14.395479076164303 43.8290515228376 H 0.0 **** 0.06
27754 H 32.194800411926536 15.54261985385902 42.53485669633645 H 0.0 **** 0.06
27755 H 33.47055310005521 14.59577494487191 43.337581010131714 H 0.0 **** 0.06
27756 C 49.223594082487324 94.50850459099775 69.71459682462702 C 0.0 **** -0.24
27757 H 49.55374773293428 93.79965886226705 68.9547528198587 H 0.0 **** 0.06
27758 H 50.0914515107259 94.91533368537102 70.23297612641238 H 0.0 **** 0.06
27759 H 48.57780234548147 93.99875460198678 70.42869168908945 H 0.0 **** 0.06
27760 H 48.67085229514049 95.31930324310378 69.23839022609695 H 0.0 **** 0.06
27761 C 116.55562691885451 97.24612181162871 19.876815837975983 C 0.0 **** -0.24
27762 H 115.56575752289083 97.08214138122057 19.452193059353533 H 0.0 **** 0.06
27763 H 116.51248245491219 98.06738419348977 20.59279158790895 H 0.0 **** 0.06
27764 H 117.25647157786072 97.49551078042052 19.079895831750775 H 0.0 **** 0.06
27765 H 116.88882617388984 96.34062098025075 20.383137893550895 H 0.0 **** 0.06
27766 C 16.510947126583574 83.89648185825223 83.87632500624281 C 0.0 **** -0.24
27767 H 16.998618704213925 84.29623997180161 84.76599489623143 H 0.0 **** 0.06
27768 H 16.12803468898545 82.89859263613224 84.09035010084901 H 0.0 **** 0.06
27769 H 17.232724162730392 83.84289144939493 83.0602143207781 H 0.0 **** 0.06
27770 H 15.686584948962093 84.54866263722371 83.5897718038376 H 0.0 **** 0.06
27771 C 89.67585458374106 32.13946111016915 2.4163307802035465 C 0.0 **** -0.24
27772 H 88.7114198721739 31.6336529475428 2.436211866918912 H 0.0 **** 0.06
27773 H 90.47532687448066 31.397857540745292 2.407855176478641 H 0.0 **** 0.06
27774 H 89.77402219126407 32.77050036093533 3.300228519641573 H 0.0 **** 0.06
27775 H 89.74489005979933 32.75717728195545 1.5199438628344737 H 0.0 **** 0.06
27776 C 4.988821917312862 111.67365508762293 38.08828341758911 C 0.0 **** -0.24
27777 H 5.872777905105423 111.11139216515052 37.78665316367548 H 0.0 **** 0.06
27778 H 4.282400170658747 111.71338369933116 37.25862049076167 H 0.0 **** 0.06
27779 H 5.280386787348704 112.68695461231758 38.36698872554487 H 0.0 **** 0.06
27780 H 4.520816920473976 111.18275289670908 38.94175687958176 H 0.0 **** 0.06
27781 C 90.1996487203904 112.11270796965113 5.008382876867586 C 0.0 **** -0.24
27782 H 91.23909571978089 111.831084152231 5.175096697878985 H 0.0 **** 0.06
27783 H 89.70652315629829 111.3435698947527 4.4142639099806615 H 0.0 **** 0.06
27784 H 90.16175448578531 113.06290758680049 4.477063578606703 H 0.0 **** 0.06
27785 H 89.69269877877065 112.21281451465913 5.967888468445267 H 0.0 **** 0.06
27786 C 48.9208235583944 41.92500027150168 71.66415150680433 C 0.0 **** -0.24
27787 H 47.93862917572946 42.38250459423244 71.78438286785803 H 0.0 **** 0.06
27788 H 49.430862752566924 42.379575055446146 70.81388716520479 H 0.0 **** 0.06
27789 H 48.80467351998209 40.85546825944915 71.48902580787973 H 0.0 **** 0.06
27790 H 49.508863543473126 42.083104589028856 72.56808322820626 H 0.0 **** 0.06
27791 C 38.82743841516091 20.841737902482976 76.47431147563049 C 0.0 **** -0.24
27792 H 39.62825963540976 20.323723695170486 75.94629041132055 H 0.0 **** 0.06
27793 H 38.833992936977694 20.547419992826065 77.52355193636043 H 0.0 **** 0.06
27794 H 37.86817492655567 20.57945995630888 76.02877318189533 H 0.0 **** 0.06
27795 H 38.98072081400517 21.91876346242492 76.3975254534054 H 0.0 **** 0.06
27796 C 10.728905798205293 109.87601662506103 84.19533933650183 C 0.0 **** -0.24
27797 H 10.489361240827307 110.7756231226698 83.62734444801686 H 0.0 **** 0.06
27798 H 11.810601870718429 109.79197892214086 84.3021235373352 H 0.0 **** 0.06
27799 H 10.345920046695252 109.00169746068673 83.67045992672487 H 0.0 **** 0.06
27800 H 10.270577895561999 109.93796563286628 85.18286730193955 H 0.0 **** 0.06
27801 C 91.41805725864819 23.82957830530927 46.068734142196405 C 0.0 **** -0.24
27802 H 92.06383090384438 24.645539853313906 46.39331652704993 H 0.0 **** 0.06
27803 H 90.43552489987923 23.939765590287408 46.52645068305492 H 0.0 **** 0.06
27804 H 91.8556861083892 22.878182627486638 46.37100855363184 H 0.0 **** 0.06
27805 H 91.3195682630018 23.854446058183726 44.983728589307674 H 0.0 **** 0.06
27806 C 96.35205650821831 54.12174811325816 16.3186283894846 C 0.0 **** -0.24
27807 H 95.49020126078011 54.621507508383296 16.758237891725827 H 0.0 **** 0.06
27808 H 96.85763642721747 54.80229382162849 15.633910181980426 H 0.0 **** 0.06
27809 H 96.01968948464958 53.23793144432241 15.773042562532957 H 0.0 **** 0.06
27810 H 97.04096314882395 53.82228114155942 17.109080032686958 H 0.0 **** 0.06
27811 C 40.856090596121646 73.96353351503993 30.993416283295517 C 0.0 **** -0.24
27812 H 41.878588190861535 73.66852982046524 30.75793581496756 H 0.0 **** 0.06
27813 H 40.58382307840213 73.57321462016898 31.974405156932228 H 0.0 **** 0.06
27814 H 40.179036676266946 73.56014268987934 30.24112023726397 H 0.0 **** 0.06
27815 H 40.78472923668329 75.05100313784075 31.002685886003185 H 0.0 **** 0.06
27816 C 60.684809809914746 17.457749110807697 41.09827305225757 C 0.0 **** -0.24
27817 H 60.81368249701779 17.75177675258732 42.14051976872801 H 0.0 **** 0.06
27818 H 61.08081360939146 16.453105785340995 40.952234322201065 H 0.0 **** 0.06
27819 H 61.22027554219884 18.156674161618014 40.45577419034504 H 0.0 **** 0.06
27820 H 59.624399983523325 17.471592125466202 40.845166401555446 H 0.0 **** 0.06
27821 C 40.279481630543614 98.67624923716619 6.916436459458055 C 0.0 **** -0.24
27822 H 40.456715299891414 99.66785001378744 6.499938321976003 H 0.0 **** 0.06
27823 H 41.199389232995316 98.30063210012304 7.3654914552546416 H 0.0 **** 0.06
27824 H 39.96073977563603 98.00155549817163 6.121483255720051 H 0.0 **** 0.06
27825 H 39.50103447889367 98.73517172504069 7.676607292507072 H 0.0 **** 0.06
27826 C 76.18468749976631 9.701909107081775 54.653864229714515 C 0.0 **** -0.24
27827 H 75.78508581991989 8.718905505645154 54.40363030902125 H 0.0 **** 0.06
27828 H 77.03314851686383 9.587488872132155 55.32904533516264 H 0.0 **** 0.06
27829 H 75.41113749623744 10.295410419979419 55.138407308218014 H 0.0 **** 0.06
27830 H 76.51126739182803 10.203173103968979 53.742836493365004 H 0.0 **** 0.06
27831 C 56.60453738074656 81.26599012907363 111.00961069069746 C 0.0 **** -0.24
27832 H 56.343449301564554 80.60321798956835 111.83540712424553 H 0.0 **** 0.06
27833 H 57.2140071953042 80.72164008953217 110.28781557625203 H 0.0 **** 0.06
27834 H 57.1673426512375 82.11753152757555 111.39130823054748 H 0.0 **** 0.06
27835 H 55.693668854255996 81.61785002656137 110.52565957190123 H 0.0 **** 0.06
27836 C 61.3218975760833 59.2677539037318 7.0009752637314335 C 0.0 **** -0.24
27837 H 61.36178884092749 58.182554085090345 7.089612454087003 H 0.0 **** 0.06
27838 H 61.763181305401645 59.72032035266918 7.88880285408932 H 0.0 **** 0.06
27839 H 60.28379512190793 59.58722239484584 6.907686649142789 H 0.0 **** 0.06
27840 H 61.87903793929115 59.57999030091486 6.118103487266438 H 0.0 **** 0.06
27841 C 24.18386093824529 48.47089315281693 29.87409069503186 C 0.0 **** -0.24
27842 H 25.20771306302032 48.25355995149829 30.179802529970075 H 0.0 **** 0.06
27843 H 23.492695105937514 47.8770825347832 30.473575811728843 H 0.0 **** 0.06
27844 H 24.058285277301536 48.22124780500508 28.820515105163054 H 0.0 **** 0.06
27845 H 23.977068788962754 49.530536345943744 30.023234467033923 H 0.0 **** 0.06
27846 C 69.19996914804832 5.497892538960233 43.230561266635284 C 0.0 **** -0.24
27847 H 69.30203898879208 6.532459270331367 43.55705774580252 H 0.0 **** 0.06
27848 H 68.16398187411673 5.180755565816268 43.35045323715914 H 0.0 **** 0.06
27849 H 69.84772266658169 4.8610535781107505 43.832736545560685 H 0.0 **** 0.06
27850 H 69.48530876896706 5.418448643518293 42.18099487583156 H 0.0 **** 0.06
27851 C 72.23414361983288 79.63015429985404 54.719549564980646 C 0.0 **** -0.24
27852 H 72.62006059125807 79.53948726249308 55.73458360890026 H 0.0 **** 0.06
27853 H 72.29100732013276 78.66244489295582 54.221192674985126 H 0.0 **** 0.06
27854 H 72.82759283059832 80.35911821762991 54.1683135259211 H 0.0 **** 0.06
27855 H 71.1958729432964 79.96001254282623 54.754906440884746 H 0.0 **** 0.06
27856 C 53.00630480226579 3.557541801043282 49.46378253875582 C 0.0 **** -0.24
27857 H 52.89287991622882 2.6683468376368644 48.84406191517428 H 0.0 **** 0.06
27858 H 53.587321636309696 3.308909078526618 50.35172834908923 H 0.0 **** 0.06
27859 H 52.02191923256623 3.9198335478458635 49.762605890027146 H 0.0 **** 0.06
27860 H 53.52161500297905 4.3321876699003266 48.89664790311576 H 0.0 **** 0.06
27861 C 82.89082089354406 76.3152913727586 87.64571262437772 C 0.0 **** -0.24
27862 H 82.07389610577215 75.61644236425016 87.46303097850415 H 0.0 **** 0.06
27863 H 82.53761603131636 77.1300751673183 88.27875475313704 H 0.0 **** 0.06
27864 H 83.24337133413903 76.7181999730461 86.69667765739112 H 0.0 **** 0.06
27865 H 83.70778151946172 75.79451650322636 88.14532892583551 H 0.0 **** 0.06
27866 C 26.6021971995292 8.065940684148131 95.82321245673384 C 0.0 **** -0.24
27867 H 26.600459042263935 7.0940101763891334 96.31713417712334 H 0.0 **** 0.06
27868 H 25.891550173494977 8.05516988423173 94.99674565874935 H 0.0 **** 0.06
27869 H 27.601588472043545 8.278177253690302 95.44138084305064 H 0.0 **** 0.06
27870 H 26.315458553664143 8.83707364649834 96.53828341669808 H 0.0 **** 0.06
27871 C 113.55408334835306 59.83016222572593 93.821338273625 C 0.0 **** -0.24
27872 H 113.09363903994836 59.31899644460327 94.66625252859151 H 0.0 **** 0.06
27873 H 112.80120100902124 60.014690591441365 93.05426519773587 H 0.0 **** 0.06
27874 H 114.34778075484527 59.20709677047597 93.40908054379969 H 0.0 **** 0.06
27875 H 113.97388161157139 60.77868310298038 94.15499690598412 H 0.0 **** 0.06
27876 C 110.44508371309861 37.363589548125134 39.993321703757914 C 0.0 **** -0.24
27877 H 111.22254777774681 38.07816234936948 39.72432380520209 H 0.0 **** 0.06
27878 H 109.53712264134161 37.901919207704765 40.26642695563632 H 0.0 **** 0.06
27879 H 110.78032341106169 36.76390349743224 40.839743332981186 H 0.0 **** 0.06
27880 H 110.24094649026515 36.7120625369202 39.14412674989819 H 0.0 **** 0.06
27881 C 83.49019259346517 59.85654408909119 116.67522100098073 C 0.0 **** -0.24
27882 H 84.1490718189848 58.98796652485126 116.65110025255296 H 0.0 **** 0.06
27883 H 82.45453015289866 59.52842565667095 116.58363931868682 H 0.0 **** 0.06
27884 H 83.73547369206054 60.52145367624772 115.8467332066077 H 0.0 **** 0.06
27885 H 83.62171416261802 60.38610304193949 117.61839220213577 H 0.0 **** 0.06
27886 C 73.75312583913632 52.15954669153376 33.753797522620346 C 0.0 **** -0.24
27887 H 74.36206206877566 52.99452983959665 34.10037995279765 H 0.0 **** 0.06
27888 H 73.77535989456834 51.36069496145163 34.4960348266884 H 0.0 **** 0.06
27889 H 74.14916629226462 51.789203467624645 32.807915151527595 H 0.0 **** 0.06
27890 H 72.72581991538667 52.49471978570406 33.6106014643093 H 0.0 **** 0.06
27891 C 113.4693543066181 57.697620840225625 18.82984425019518 C 0.0 **** -0.24
27892 H 113.68175305085221 56.764162027579346 19.3500278005954 H 0.0 **** 0.06
27893 H 112.45323754723495 57.67105005834753 18.436002522772412 H 0.0 **** 0.06
27894 H 114.17473851932651 57.82330987019219 18.008064484300462 H 0.0 **** 0.06
27895 H 113.56882317158541 58.53117509206169 19.524976476772167 H 0.0 **** 0.06
27896 C 62.62108533200313 44.1307612594816 96.88210837961253 C 0.0 **** -0.24
27897 H 61.60902277093777 44.53350341488988 96.82837038948725 H 0.0 **** 0.06
27898 H 63.04319518001725 44.34138356345963 97.86562207657022 H 0.0 **** 0.06
27899 H 63.23832157392462 44.5974341513228 96.11401695304619 H 0.0 **** 0.06
27900 H 62.59200722427346 43.05389426980386 96.72127798117563 H 0.0 **** 0.06
27901 C 97.44158288319798 78.8616126030081 75.45627174647919 C 0.0 **** -0.24
27902 H 96.65571370293242 79.25229640463004 74.81023820439714 H 0.0 **** 0.06
27903 H 97.97975270045652 79.69108137478713 75.91604063203201 H 0.0 **** 0.06
27904 H 98.13309897433908 78.26251567792082 74.86456329782482 H 0.0 **** 0.06
27905 H 96.99638248360532 78.24030241219543 76.23410070407348 H 0.0 **** 0.06
27906 C 7.022891471192537 30.465329406574767 4.8334340185797515 C 0.0 **** -0.24
27907 H 6.709541910446632 30.23249381125933 5.850645476438913 H 0.0 **** 0.06
27908 H 6.303817106623583 31.14674652259427 4.378292977057782 H 0.0 **** 0.06
27909 H 7.071787469022297 29.5463916544534 4.248703998774147 H 0.0 **** 0.06
27910 H 8.006738331834498 30.934888903004065 4.8542870426194185 H 0.0 **** 0.06
27911 C 104.41113162723104 66.52900099382444 16.278335981313205 C 0.0 **** -0.24
27912 H 103.46588405513171 67.02881870588726 16.49111962677989 H 0.0 **** 0.06
27913 H 104.80326216740036 66.88560335192429 15.326463667453226 H 0.0 **** 0.06
27914 H 104.2480594506157 65.45227844070106 16.22489800153994 H 0.0 **** 0.06
27915 H 105.12424393542642 66.74882478762734 17.07238060300611 H 0.0 **** 0.06
27916 C 5.38219420639893 99.83466814178507 32.70873842338736 C 0.0 **** -0.24
27917 H 5.347046168434883 98.75475809064483 32.85720238167935 H 0.0 **** 0.06
27918 H 4.4149218525399085 100.1822897555424 32.34568197331403 H 0.0 **** 0.06
27919 H 6.152878534781035 100.07502236958379 31.97728712567202 H 0.0 **** 0.06
27920 H 5.613253593016587 100.32373244415686 33.65533562782292 H 0.0 **** 0.06
27921 C 37.76999154129203 1.8336589738996167 12.01173556529747 C 0.0 **** -0.24
27922 H 37.50642529383856 1.2067690166596066 11.15967370996239 H 0.0 **** 0.06
27923 H 38.74763981802761 2.284746161862927 11.8419275397263 H 0.0 **** 0.06
27924 H 37.80226104879074 1.2228848974793038 12.914349722312323 H 0.0 **** 0.06
27925 H 37.02271000280376 2.618288115067145 12.129832887169272 H 0.0 **** 0.06
27926 C 42.519810530485046 4.5877724999197085 61.893888499841104 C 0.0 **** -0.24
27927 H 42.520862039272515 5.662619890284077 62.07065518151784 H 0.0 **** 0.06
27928 H 41.64332197913322 4.142671276253282 62.36575536893309 H 0.0 **** 0.06
27929 H 43.42267681106793 4.1482698277519745 62.31862192968844 H 0.0 **** 0.06
27930 H 42.49170759197219 4.395462443565819 60.82104663127456 H 0.0 **** 0.06
27931 C 15.724509557490862 0.16180767637800386 28.961730196776728 C 0.0 **** -0.24
27932 H 16.692404405656376 0.44873416490420936 29.372809658828345 H 0.0 **** 0.06
27933 H 15.199951047073696 1.0514958298315378 28.612413771970182 H 0.0 **** 0.06
27934 H 15.132910056282384 -0.32994435952619483 29.733288021279236 H 0.0 **** 0.06
27935 H 15.874102705731048 -0.5236445524284221 28.126711165923297 H 0.0 **** 0.06
27936 C 80.17217298085657 58.539899259184956 22.913105477115153 C 0.0 **** -0.24
27937 H 79.50580500225564 57.67774480535838 22.905968014449513 H 0.0 **** 0.06
27938 H 81.19768376411136 58.20810338250073 22.752115806502502 H 0.0 **** 0.06
27939 H 80.09950848331263 59.04720931513287 23.874910511580254 H 0.0 **** 0.06
27940 H 79.88323932214371 59.22708094498845 22.117790917931472 H 0.0 **** 0.06
27941 C 80.07673332896755 19.719782379986185 61.01931864913754 C 0.0 **** -0.24
27942 H 79.51827386191931 20.615939959995956 61.293640192440044 H 0.0 **** 0.06
27943 H 81.1392334660874 19.957612082757265 60.962203877307225 H 0.0 **** 0.06
27944 H 79.73149092346569 19.359978932180468 60.05111380991874 H 0.0 **** 0.06
27945 H 79.91584434647442 18.94830225315016 61.772623198263965 H 0.0 **** 0.06
27946 C 26.28982372468201 117.28456167000559 81.79255901778197 C 0.0 **** -0.24
27947 H 26.87910063650287 116.93413355501991 80.94425157434665 H 0.0 **** 0.06
27948 H 26.195656370530145 118.37025080229824 81.74402764166086 H 0.0 **** 0.06
27949 H 26.78791059923813 117.00426529551663 82.72049379708716 H 0.0 **** 0.06
27950 H 25.299407905223177 116.83091092017725 81.75933169751164 H 0.0 **** 0.06
27951 C 108.23277296789524 65.74511152723039 33.861601715808156 C 0.0 **** -0.24
27952 H 109.00889144780888 65.07593584547448 33.49100011554441 H 0.0 **** 0.06
27953 H 108.49043069403581 66.0783838853703 34.867210802936995 H 0.0 **** 0.06
27954 H 107.27994750730096 65.21542611991089 33.88685319922215 H 0.0 **** 0.06
27955 H 108.15166854250094 66.6078495948004 33.20042045062964 H 0.0 **** 0.06
27956 C 25.581408132775152 91.70415165307026 14.260548407894106 C 0.0 **** -0.24
27957 H 26.092106752322877 90.79743909691601 14.58445706073499 H 0.0 **** 0.06
27958 H 26.100126179356693 92.1263937908652 13.399337754583016 H 0.0 **** 0.06
27959 H 25.57713175821283 92.42940323260501 15.07409706322268 H 0.0 **** 0.06
27960 H 24.554581673995102 91.46196558719154 13.983873529150003 H 0.0 **** 0.06
27961 C 97.07366771726205 6.943827316800103 85.07221032792322 C 0.0 **** -0.24
27962 H 97.59121669159688 7.132265963477526 86.01234885682976 H 0.0 **** 0.06
27963 H 97.59413373801576 6.159098969125395 84.52281508296281 H 0.0 **** 0.06
27964 H 97.05853171758386 7.856295450400886 84.47584517307004 H 0.0 **** 0.06
27965 H 96.05126512163255 6.626772313503455 85.27790094202564 H 0.0 **** 0.06
27966 C 60.1783308559109 1.7497874877144426 27.23712115439716 C 0.0 **** -0.24
27967 H 59.9266355728864 1.5069234046145041 26.204570374132004 H 0.0 **** 0.06
27968 H 60.05961888360642 0.86222339842063 27.858121950884424 H 0.0 **** 0.06
27969 H 59.51763290940599 2.537144244797913 27.596446885930618 H 0.0 **** 0.06
27970 H 61.21235246017298 2.092842105323337 27.286105741948973 H 0.0 **** 0.06
27971 C 76.94554674444231 47.21635847995711 75.89286774020024 C 0.0 **** -0.24
27972 H 76.37683262250235 47.74478017535034 76.65817901284123 H 0.0 **** 0.06
27973 H 77.96946201340026 47.59250039383963 75.87860351430453 H 0.0 **** 0.06
27974 H 76.48395742228215 47.3811398226801 74.91889596489801 H 0.0 **** 0.06
27975 H 76.95315938337524 46.15005177041357 76.11631248351495 H 0.0 **** 0.06
27976 C 34.29056616296663 24.753356206362042 89.3336708417562 C 0.0 **** -0.24
27977 H 33.995378955555395 23.707242969957576 89.4134716188419 H 0.0 **** 0.06
27978 H 33.950401586910516 25.155286358233965 88.3799210250132 H 0.0 **** 0.06
27979 H 35.376887376523484 24.829636570877682 89.39421985187715 H 0.0 **** 0.06
27980 H 33.84052749913036 25.32007774834068 90.14946648417683 H 0.0 **** 0.06
27981 C 0.4010404431400616 54.862282835855325 63.73427260829166 C 0.0 **** -0.24
27982 H -0.5557348059872425 54.54952154224128 63.316515447948575 H 0.0 **** 0.06
27983 H 0.7712747956512374 54.09081467591662 64.41054700406244 H 0.0 **** 0.06
27984 H 0.27079469333281736 55.7944185917392 64.28280926734246 H 0.0 **** 0.06
27985 H 1.117756123211933 55.01238028962885 62.927319750043296 H 0.0 **** 0.06
27986 C 29.512250648682993 24.061615100091842 98.34399552576656 C 0.0 **** -0.24
27987 H 30.01788961095781 23.3956220241787 97.64538119460786 H 0.0 **** 0.06
27988 H 29.092874860137073 24.90833525827125 97.79922807298587 H 0.0 **** 0.06
27989 H 30.226450119930803 24.422130095496676 99.08432357780558 H 0.0 **** 0.06
27990 H 28.709875560307665 23.519468663135108 98.84581433018775 H 0.0 **** 0.06
27991 C 45.71043117810865 32.74853647176593 105.40576172849279 C 0.0 **** -0.24
27992 H 45.649988186814824 32.1226623795672 106.29612729157202 H 0.0 **** 0.06
27993 H 45.34565412875632 33.74900801847349 105.64082347670964 H 0.0 **** 0.06
27994 H 45.09782495690928 32.315662949745786 104.61515583506889 H 0.0 **** 0.06
27995 H 46.745945366768396 32.80778026408552 105.07258905356707 H 0.0 **** 0.06
27996 C 22.283984879533673 59.590834819273795 27.550812972373222 C 0.0 **** -0.24
27997 H 22.851819886376077 60.51929721097392 27.49756341567985 H 0.0 **** 0.06
27998 H 21.258843970263513 59.80870502209092 27.850920086883548 H 0.0 **** 0.06
27999 H 22.743335689187056 58.92439820282493 28.28074148218454 H 0.0 **** 0.06
28000 H 22.28115180371432 59.11045600918251 26.571758421803537 H 0.0 **** 0.06
28001 C 94.05493858304291 48.84701578080134 54.51862804903547 C 0.0 **** -0.24
28002 H 94.20429505742933 49.66187563237483 55.22554141978779 H 0.0 **** 0.06
28003 H 94.98808940819487 48.64920588871402 53.990362581909466 H 0.0 **** 0.06
28004 H 93.28354818671698 49.1245606152026 53.80056379950361 H 0.0 **** 0.06
28005 H 93.7448093482723 47.951322009870466 55.05609065190376 H 0.0 **** 0.06
28006 C 35.42288992642682 77.57308649328485 99.40687740189173 C 0.0 **** -0.24
28007 H 35.44355928872136 77.61951362599862 100.49589525932333 H 0.0 **** 0.06
28008 H 35.25034565207275 78.57196139463088 99.00515981359308 H 0.0 **** 0.06
28009 H 34.62095414282061 76.90877003319949 99.08669129853718 H 0.0 **** 0.06
28010 H 36.37720927365734 77.19387484460759 99.04137407874245 H 0.0 **** 0.06
28011 C 95.45557216298417 32.62321317813115 104.60629917587158 C 0.0 **** -0.24
28012 H 94.49443292146285 33.09293361125657 104.40004793160722 H 0.0 **** 0.06
28013 H 96.12610357893601 32.78100403325897 103.76118777975103 H 0.0 **** 0.06
28014 H 95.31076590938582 31.554069627656247 104.76102079423364 H 0.0 **** 0.06
28015 H 95.89098624215154 33.06484544035287 105.50294019789456 H 0.0 **** 0.06
28016 C 75.1999796026281 99.01402441324257 87.46461105847425 C 0.0 **** -0.24
28017 H 74.68764469880097 99.75830605596227 86.85555415613828 H 0.0 **** 0.06
28018 H 75.15343215364695 98.04429519613541 86.96896183172561 H 0.0 **** 0.06
28019 H 74.71614702415525 98.94720136214588 88.4394630121142 H 0.0 **** 0.06
28020 H 76.2415488040275 99.30616269861653 87.59528371192647 H 0.0 **** 0.06
28021 C 36.71809193240364 9.109630916215849 32.60450552915087 C 0.0 **** -0.24
28022 H 37.11479299281831 8.96877172570747 33.60938784159934 H 0.0 **** 0.06
28023 H 37.42082223909864 9.700729555987266 32.01628605536837 H 0.0 **** 0.06
28024 H 35.7621763417327 9.63047748245097 32.66117842253627 H 0.0 **** 0.06
28025 H 36.57413990073729 8.137645465540828 32.131142296234685 H 0.0 **** 0.06
28026 C 0.5703748798882771 10.107092051636599 83.77085674035504 C 0.0 **** -0.24
28027 H -0.13842813478146354 9.909228016246164 82.96703981219244 H 0.0 **** 0.06
28028 H 0.05187616686396268 10.588949302896289 84.60056350878563 H 0.0 **** 0.06
28029 H 1.3600235106680998 10.762980465159622 83.4063846444891 H 0.0 **** 0.06
28030 H 1.0056622205754024 9.167211223847733 84.1100742503751 H 0.0 **** 0.06
28031 C 5.554296893613369 49.111511010346625 32.88910578357718 C 0.0 **** -0.24
28032 H 4.635776263832511 49.65094292677975 32.661157230050435 H 0.0 **** 0.06
28033 H 5.578588282064729 48.18022513563881 32.32255555478076 H 0.0 **** 0.06
28034 H 5.591100002773231 48.889854227071126 33.95502195595975 H 0.0 **** 0.06
28035 H 6.412907618299471 49.72511965072323 32.61554654671181 H 0.0 **** 0.06
28036 C 116.31991139874117 102.65515761510969 21.438103482020438 C 0.0 **** -0.24
28037 H 115.25496031427784 102.54443981959565 21.641394661111192 H 0.0 **** 0.06
28038 H 116.86721580977388 102.68893684116208 22.381003535511766 H 0.0 **** 0.06
28039 H 116.4911395232966 103.57797913210976 20.8851877014647 H 0.0 **** 0.06
28040 H 116.66666418875639 101.80711510615254 20.846883535859746 H 0.0 **** 0.06
28041 C 72.83527542084988 71.75905936539803 10.673534612899743 C 0.0 **** -0.24
28042 H 72.55244736961964 71.61002321622203 9.632057288504797 H 0.0 **** 0.06
28043 H 73.25469812380089 72.7582102707334 10.796439882699389 H 0.0 **** 0.06
28044 H 73.57948750933832 71.01480266200298 10.957152140980781 H 0.0 **** 0.06
28045 H 71.95551946051654 71.65383284440406 11.307784053325207 H 0.0 **** 0.06
28046 C 79.63246858234109 106.01323827454596 0.0005660554284645514 C 0.0 **** -0.24
28047 H 79.5479864557463 105.5430852771716 0.9802290015056769 H 0.0 **** 0.06
28048 H 79.10399641335428 105.41056530795922 -0.7376899957089904 H 0.0 **** 0.06
28049 H 80.68401436987435 106.08928793437633 -0.2760120904855512 H 0.0 **** 0.06
28050 H 79.19340888996805 107.010686228471 0.038444730156868445 H 0.0 **** 0.06
28051 C 101.38585945028626 99.01779892240236 43.18059180931406 C 0.0 **** -0.24
28052 H 102.39913929757313 98.65307379405073 43.3506921788789 H 0.0 **** 0.06
28053 H 101.36675815003503 100.1024716705993 43.29557813864902 H 0.0 **** 0.06
28054 H 100.70939670497481 98.56363407808865 43.903562020952435 H 0.0 **** 0.06
28055 H 101.07072766594874 98.75433713604099 42.17114325110676 H 0.0 **** 0.06
28056 C 110.23527751081271 14.269163713852265 93.4774848040675 C 0.0 **** -0.24
28057 H 109.49315550263896 14.522095772353339 92.71953828061834 H 0.0 **** 0.06
28058 H 110.57350378210849 13.243890396447568 93.32754754729746 H 0.0 **** 0.06
28059 H 109.78869629126932 14.364173021309796 94.46724033631347 H 0.0 **** 0.06
28060 H 111.08310460806725 14.948828514756144 93.39437334255058 H 0.0 **** 0.06
28061 C 83.5529900434257 19.955390625212388 30.02207957134779 C 0.0 **** -0.24
28062 H 83.81107009790242 21.012986532706126 29.964815549455153 H 0.0 **** 0.06
28063 H 82.47321979091356 19.850451028506793 30.132625998750413 H 0.0 **** 0.06
28064 H 84.05238767082093 19.506036984362655 30.879985649298618 H 0.0 **** 0.06
28065 H 83.8752870116619 19.453416749343727 29.10978002413688 H 0.0 **** 0.06
28066 C 19.426001266931905 100.52209215905063 54.32266140168662 C 0.0 **** -0.24
28067 H 18.859519753555787 101.12823458447212 53.61598353945283 H 0.0 **** 0.06
28068 H 19.880841222505126 99.68265600608308 53.79686855029411 H 0.0 **** 0.06
28069 H 18.756479442970033 100.14696068986208 55.096870994592166 H 0.0 **** 0.06
28070 H 20.20502270980245 101.13097909714818 54.77982742239507 H 0.0 **** 0.06
28071 C 62.27001485727516 82.54937248872028 47.725375607406534 C 0.0 **** -0.24
28072 H 61.61789391021321 81.71142862872807 47.478527594730735 H 0.0 **** 0.06
28073 H 61.75676342783362 83.21689664515173 48.418001825287234 H 0.0 **** 0.06
28074 H 62.52225881541463 83.09279178760971 46.814656092737096 H 0.0 **** 0.06
28075 H 63.18233554253055 82.17506870516434 48.18951265573878 H 0.0 **** 0.06
28076 C 42.015097142864605 107.91583994860466 81.3857937724463 C 0.0 **** -0.24
28077 H 41.60058591373377 106.91208748561613 81.48635262155003 H 0.0 **** 0.06
28078 H 41.44587718647037 108.46949366722043 80.63852085003032 H 0.0 **** 0.06
28079 H 43.05691638993392 107.84836991561733 81.07410970032018 H 0.0 **** 0.06
28080 H 41.95498970846651 108.43084120618525 82.34534546812506 H 0.0 **** 0.06
28081 C 54.36169648016302 53.70783828307151 14.656288157087829 C 0.0 **** -0.24
28082 H 54.10510758590972 52.79280332166553 15.190707248021027 H 0.0 **** 0.06
28083 H 54.05811527542181 54.5709447500501 15.248605841569173 H 0.0 **** 0.06
28084 H 53.84400533798332 53.725233602423884 13.696854524475427 H 0.0 **** 0.06
28085 H 55.43831550701959 53.74191464949831 14.48948335810752 H 0.0 **** 0.06
28086 C 31.29887964571219 5.603565577104012 86.67437088565165 C 0.0 **** -0.24
28087 H 30.534634419999747 6.100962951423977 87.2706959616464 H 0.0 **** 0.06
28088 H 31.22887209697518 4.525530066410509 86.81930172406817 H 0.0 **** 0.06
28089 H 32.28541642114487 5.949262246192214 86.9862581827048 H 0.0 **** 0.06
28090 H 31.14811487039185 5.839299020655856 85.62097291419659 H 0.0 **** 0.06
28091 C 4.127223357979878 64.26578339704787 68.74455136817949 C 0.0 **** -0.24
28092 H 5.099629322705081 64.7146377984667 68.54158352997754 H 0.0 **** 0.06
28093 H 3.5631747595197183 64.18646642152711 67.81561190710957 H 0.0 **** 0.06
28094 H 3.5802703271139027 64.88998822361131 69.45072149530762 H 0.0 **** 0.06
28095 H 4.268304753520706 63.27305708120542 69.17195874990978 H 0.0 **** 0.06
28096 C 69.05921554127181 26.548657173009957 41.539824718157746 C 0.0 **** -0.24
28097 H 69.7139365448052 26.06045075523309 42.26257124667123 H 0.0 **** 0.06
28098 H 69.52353984788672 27.47367780313236 41.19707936316124 H 0.0 **** 0.06
28099 H 68.10313611139244 26.77394849328053 42.01064784975176 H 0.0 **** 0.06
28100 H 68.89873461150788 25.88564853946731 40.69000534994643 H 0.0 **** 0.06
28101 C 101.35389881810679 49.28425795180669 52.41099135917205 C 0.0 **** -0.24
28102 H 102.31900193098318 49.20386283863745 51.9114444270366 H 0.0 **** 0.06
28103 H 100.64068989330522 49.77261923582895 51.747754754903134 H 0.0 **** 0.06
28104 H 101.46506701288422 49.873141755343916 53.32204796001295 H 0.0 **** 0.06
28105 H 100.99204662587164 48.28812483675429 52.66414018980709 H 0.0 **** 0.06
28106 C 78.62167871261542 115.67827532046985 19.857816700270604 C 0.0 **** -0.24
28107 H 78.98943727437344 115.15610194069075 18.974473518363126 H 0.0 **** 0.06
28108 H 78.91140097372647 115.12640203061656 20.752049586992726 H 0.0 **** 0.06
28109 H 77.53444946005979 115.7497152456753 19.81087489386161 H 0.0 **** 0.06
28110 H 79.0506105713184 116.67937851795551 19.893599109264272 H 0.0 **** 0.06
28111 C 41.834310273284366 74.10928913969781 21.31974815570294 C 0.0 **** -0.24
28112 H 42.73070029391879 73.87762283106213 20.744122195044866 H 0.0 **** 0.06
28113 H 42.08728828752876 74.16273798746886 22.378400546601455 H 0.0 **** 0.06
28114 H 41.08949316439637 73.3299151076657 21.16199169501506 H 0.0 **** 0.06
28115 H 41.431751703928306 75.06839697732931 20.993162252203632 H 0.0 **** 0.06
28116 C 19.338808670300654 99.24420641946736 9.605372506806763 C 0.0 **** -0.24
28117 H 18.56314101167125 98.95798408626604 8.895331657683968 H 0.0 **** 0.06
28118 H 19.931854155278828 100.05853911142768 9.188237118576115 H 0.0 **** 0.06
28119 H 19.98347796421971 98.3886571583557 9.803489787822276 H 0.0 **** 0.06
28120 H 18.875532752029194 99.57269763687316 10.536270767319063 H 0.0 **** 0.06
28121 C 22.212326989493988 106.17923442715403 105.11117713324938 C 0.0 **** -0.24
28122 H 22.865888053899056 105.94632980640208 105.95158948274519 H 0.0 **** 0.06
28123 H 22.269706518735532 107.2458497055811 104.8923506033498 H 0.0 **** 0.06
28124 H 21.185723922567007 105.91518363937271 105.36584734464796 H 0.0 **** 0.06
28125 H 22.527884359033237 105.61120534254908 104.23674588824053 H 0.0 **** 0.06
28126 C 28.719850461125247 4.896529839300811 81.21473704665189 C 0.0 **** -0.24
28127 H 27.832314184749805 5.124876209304674 80.62488550244203 H 0.0 **** 0.06
28128 H 29.607274579421926 4.987129934448916 80.58641167873773 H 0.0 **** 0.06
28129 H 28.648719290519807 3.8782490590944576 81.59763155621673 H 0.0 **** 0.06
28130 H 28.79180444873515 5.594230632017869 82.04833810450702 H 0.0 **** 0.06
28131 C 51.51667070254038 96.17269539399405 86.33210423301546 C 0.0 **** -0.24
28132 H 51.84493408959344 97.08298797520735 86.83326897888753 H 0.0 **** 0.06
28133 H 50.51904588789671 96.32408974020018 85.91938632169774 H 0.0 **** 0.06
28134 H 51.49414121979822 95.3507203753262 87.04785913589251 H 0.0 **** 0.06
28135 H 52.21045991626386 95.93230289027093 85.52526926964185 H 0.0 **** 0.06
28136 C 81.76304577361557 116.09247205628913 48.14749885015495 C 0.0 **** -0.24
28137 H 81.97797480928995 116.66040343005764 47.24217954313965 H 0.0 **** 0.06
28138 H 80.6831952259351 116.01808692919636 48.28034945994768 H 0.0 **** 0.06
28139 H 82.20111280735316 116.59954292789857 49.006427774484045 H 0.0 **** 0.06
28140 H 82.18858634754869 115.09272471868078 48.05868966467529 H 0.0 **** 0.06
28141 C 106.58170802661812 75.51741653272512 2.8231886472559893 C 0.0 **** -0.24
28142 H 106.16444391880725 76.48833810148588 3.0925222939733032 H 0.0 **** 0.06
28143 H 107.53173359581717 75.37518128303915 3.339164590506982 H 0.0 **** 0.06
28144 H 106.74315156102409 75.47739924034855 1.74637570278027 H 0.0 **** 0.06
28145 H 105.88746163996814 74.73016312850552 3.1161042814909763 H 0.0 **** 0.06
28146 C 96.25949924152468 118.7992750770483 49.06463363849345 C 0.0 **** -0.24
28147 H 95.47286692373945 118.09044732016598 48.80476556555698 H 0.0 **** 0.06
28148 H 95.81534435030454 119.6798020270696 49.52770623512963 H 0.0 **** 0.06
28149 H 96.79532912232236 119.09295109261134 48.162538715953936 H 0.0 **** 0.06
28150 H 96.95312999564518 118.33140192358591 49.76355472334823 H 0.0 **** 0.06
28151 C 78.07171384522579 110.70628793547303 112.47623590650005 C 0.0 **** -0.24
28152 H 78.66564486484003 110.98610325259102 113.34606110432581 H 0.0 **** 0.06
28153 H 78.34296538071371 111.3404410037131 111.63250133256797 H 0.0 **** 0.06
28154 H 77.0127658786925 110.83488121242368 112.70278084359305 H 0.0 **** 0.06
28155 H 78.26538102090436 109.66364323888533 112.22459206805695 H 0.0 **** 0.06
28156 C 64.2686647233349 92.81400614303993 118.85729195215136 C 0.0 **** -0.24
28157 H 63.49725668791066 92.2199183829459 119.3474020950897 H 0.0 **** 0.06
28158 H 63.929341313700355 93.09748625426076 117.8600551048905 H 0.0 **** 0.06
28159 H 65.18379451669776 92.22764076872397 118.77724412619682 H 0.0 **** 0.06
28160 H 64.46237472830231 93.71253296380132 119.44437852159224 H 0.0 **** 0.06
28161 C 95.44991182321385 118.42272025779084 88.59457070425651 C 0.0 **** -0.24
28162 H 94.76752769008314 118.71207763763303 87.79529429549453 H 0.0 **** 0.06
28163 H 96.29949212901565 119.1059199681338 88.61066636494135 H 0.0 **** 0.06
28164 H 95.80263203801206 117.40659424165023 88.42101991454368 H 0.0 **** 0.06
28165 H 94.92908474756752 118.46760418069303 89.55063770781175 H 0.0 **** 0.06
28166 C 36.66315892837065 84.98496476660375 15.35629783333468 C 0.0 **** -0.24
28167 H 36.39858650456364 84.08137177995934 15.905835582561423 H 0.0 **** 0.06
28168 H 37.63395220785765 84.84769572952297 14.878664850724988 H 0.0 **** 0.06
28169 H 36.7127989729193 85.82794309308258 16.0455270963063 H 0.0 **** 0.06
28170 H 35.90784603781731 85.18074898113912 14.595704313258352 H 0.0 **** 0.06
28171 C 17.123549198473228 24.88025639865505 90.83740901374702 C 0.0 **** -0.24
28172 H 16.883899899016868 23.81914086170474 90.89074278187275 H 0.0 **** 0.06
28173 H 18.068922106957928 25.06505623161503 91.34771937645596 H 0.0 **** 0.06
28174 H 16.33206105048305 25.45663616289302 91.31640635024507 H 0.0 **** 0.06
28175 H 17.209299586884995 25.18130346963187 89.79258453507401 H 0.0 **** 0.06
28176 C 32.7651978785686 41.62096602230085 85.33927315975285 C 0.0 **** -0.24
28177 H 31.821776854202163 41.39471466872965 85.83702281253272 H 0.0 **** 0.06
28178 H 32.611695833062996 41.63811706533872 84.26013667628186 H 0.0 **** 0.06
28179 H 33.50033064824897 40.856906062355264 85.59025663522118 H 0.0 **** 0.06
28180 H 33.125742456958704 42.59503788785777 85.67046222947968 H 0.0 **** 0.06
28181 C 61.214081359633525 115.61612208250634 59.88948253489599 C 0.0 **** -0.24
28182 H 61.78665795712848 114.68886389116372 59.86633386765459 H 0.0 **** 0.06
28183 H 61.058116126544434 115.97183373282581 58.87083114173899 H 0.0 **** 0.06
28184 H 61.76260407639299 116.36788736209557 60.45689980311528 H 0.0 **** 0.06
28185 H 60.249637845980004 115.43547173975344 60.3632849023206 H 0.0 **** 0.06
28186 C 83.30203630379012 63.33501559089348 39.67414915617721 C 0.0 **** -0.24
28187 H 83.12968687694135 62.56235325555161 38.92575214648144 H 0.0 **** 0.06
28188 H 84.19031026682822 63.08795196565629 40.25449683558335 H 0.0 **** 0.06
28189 H 82.43885244471392 63.3959255009008 40.33745694055361 H 0.0 **** 0.06
28190 H 83.44725941258716 64.29472763298122 39.17786533253113 H 0.0 **** 0.06
28191 C 43.58763747286466 7.208553355952144 78.59686937554221 C 0.0 **** -0.24
28192 H 43.63602714106122 6.803961135659886 77.58551869983322 H 0.0 **** 0.06
28193 H 42.868200288115915 8.028198398258947 78.62659880935118 H 0.0 **** 0.06
28194 H 44.57089060380781 7.576958430802367 78.88881034427934 H 0.0 **** 0.06
28195 H 43.273955664886074 6.425233835801485 79.28744512626042 H 0.0 **** 0.06
28196 C 96.33085534089952 103.28250823690311 2.077040175337416 C 0.0 **** -0.24
28197 H 95.83679270634548 103.0949286349751 1.1238326623716262 H 0.0 **** 0.06
28198 H 97.36125459239446 103.58998617679191 1.8980002887361564 H 0.0 **** 0.06
28199 H 96.32246084937447 102.37083786902758 2.674549379930369 H 0.0 **** 0.06
28200 H 95.80213954123991 104.07140075765034 2.6114461322304834 H 0.0 **** 0.06
28201 C 58.659243176240786 95.42237332707427 31.145956110227587 C 0.0 **** -0.24
28202 H 58.82328847830558 94.3581360784734 31.320609764102016 H 0.0 **** 0.06
28203 H 57.74505577135947 95.73620204883915 31.650206558312505 H 0.0 **** 0.06
28204 H 58.566129694808886 95.60403124735498 30.075882856554074 H 0.0 **** 0.06
28205 H 59.504161135465246 95.9876813009935 31.539219516601918 H 0.0 **** 0.06
28206 C 64.71959482970226 94.58346822300396 13.318246562310236 C 0.0 **** -0.24
28207 H 64.15940274834003 93.67605735857813 13.092935850549068 H 0.0 **** 0.06
28208 H 65.16088072976936 94.49976839262024 14.311880658626634 H 0.0 **** 0.06
28209 H 64.0480329557202 95.4412777698104 13.290534278856981 H 0.0 **** 0.06
28210 H 65.50970285673048 94.7152353801105 12.579510988584573 H 0.0 **** 0.06
28211 C 2.309829847874056 25.853673297979924 68.75018397107385 C 0.0 **** -0.24
28212 H 3.3095265007693513 26.12669068314264 68.40986827192467 H 0.0 **** 0.06
28213 H 2.145461713460705 24.79030012491492 68.5758561639197 H 0.0 **** 0.06
28214 H 1.5687383623624385 26.431664114260712 68.19828761978397 H 0.0 **** 0.06
28215 H 2.218552782321666 26.06687252051273 69.81459229445039 H 0.0 **** 0.06
28216 C 68.84837738589161 110.63981142934755 96.94806591272095 C 0.0 **** -0.24
28217 H 67.7835261880567 110.86580909649851 96.89469425102968 H 0.0 **** 0.06
28218 H 69.4196536156162 111.49961711538117 96.5960072434157 H 0.0 **** 0.06
28219 H 69.06878554396354 109.77544651882386 96.32168255390812 H 0.0 **** 0.06
28220 H 69.12152247254011 110.41965206025117 97.98048260835702 H 0.0 **** 0.06
28221 C 45.73859558584638 35.209412094532155 9.102213466668132 C 0.0 **** -0.24
28222 H 44.88266813575348 35.75120918724005 9.505077836413705 H 0.0 **** 0.06
28223 H 46.3382518727729 35.88220372182553 8.488412696999319 H 0.0 **** 0.06
28224 H 45.386191009469314 34.37761264135426 8.492210796055332 H 0.0 **** 0.06
28225 H 46.34546340231202 34.82773113892301 9.922443063322987 H 0.0 **** 0.06
28226 C 90.5965409567469 114.17147674701457 37.87997520227921 C 0.0 **** -0.24
28227 H 89.82796077721514 113.58041022940202 38.378893533121726 H 0.0 **** 0.06
28228 H 90.29227155915842 115.21867271970669 37.858518527972834 H 0.0 **** 0.06
28229 H 90.72684111529162 113.81011182244168 36.859870877479594 H 0.0 **** 0.06
28230 H 91.53690577985176 114.07698624823624 38.42222704829089 H 0.0 **** 0.06
28231 C 33.62418169660573 62.36119516463856 84.5372488859876 C 0.0 **** -0.24
28232 H 33.650901845049276 61.51194246338122 83.8551620889717 H 0.0 **** 0.06
28233 H 34.22394826838965 62.137575431026676 85.41919775726174 H 0.0 **** 0.06
28234 H 32.59391360239684 62.553845627972294 84.83744724774294 H 0.0 **** 0.06
28235 H 34.02714701073694 63.241958176404125 84.03739187157646 H 0.0 **** 0.06
28236 C 93.5297659472314 34.55555398198483 101.32145966849157 C 0.0 **** -0.24
28237 H 94.12452143900424 34.41679943227868 102.22449769115116 H 0.0 **** 0.06
28238 H 94.16297557570417 34.949411304443146 100.52687455247565 H 0.0 **** 0.06
28239 H 92.72178260762479 35.25834382611508 101.52392918760648 H 0.0 **** 0.06
28240 H 93.11072462276925 33.598280607286114 101.01219021446022 H 0.0 **** 0.06
28241 C 108.84188482335696 41.21081833785655 86.3574620451698 C 0.0 **** -0.24
28242 H 108.48866748636203 40.26233187036996 85.95363724943465 H 0.0 **** 0.06
28243 H 109.65928297905069 41.02681196566887 87.05586778458613 H 0.0 **** 0.06
28244 H 108.02518404663695 41.7105655172287 86.8788555590225 H 0.0 **** 0.06
28245 H 109.19405140414443 41.84345906112837 85.5428529556697 H 0.0 **** 0.06
28246 C 60.15241149059441 63.356867068887766 55.17690687548076 C 0.0 **** -0.24
28247 H 60.46662737277149 63.99347538615672 54.3492705721504 H 0.0 **** 0.06
28248 H 59.75778299355493 63.97697795521265 55.98212575197952 H 0.0 **** 0.06
28249 H 61.006999004382926 62.78780656210148 55.54119908960933 H 0.0 **** 0.06
28250 H 59.37759981415841 62.67089510578688 54.83337383755202 H 0.0 **** 0.06
28251 C 19.75399062755224 23.02587354156929 110.76576115795083 C 0.0 **** -0.24
28252 H 19.139240919487605 23.925465896858704 110.79892696212545 H 0.0 **** 0.06
28253 H 19.550136676709883 22.414228883222236 111.64412150199892 H 0.0 **** 0.06
28254 H 20.807052953107757 23.306701176668646 110.75283291688055 H 0.0 **** 0.06
28255 H 19.51814936990587 22.45932885495028 109.86449613944961 H 0.0 **** 0.06
28256 C 9.594044098840648 43.797929198645335 36.5527340639664 C 0.0 **** -0.24
28257 H 9.01531769920241 44.63627266207587 36.93994787581286 H 0.0 **** 0.06
28258 H 8.957145868723568 42.915509533806585 36.49178536513759 H 0.0 **** 0.06
28259 H 10.432121969607348 43.597256335418564 37.22009262455816 H 0.0 **** 0.06
28260 H 9.970652701746285 44.04493000353408 35.55933372943602 H 0.0 **** 0.06
28261 C 96.69623845951236 47.15001865408223 68.61622611499865 C 0.0 **** -0.24
28262 H 96.5561219157816 48.230829825597056 68.61477130095153 H 0.0 **** 0.06
28263 H 97.72194601904692 46.91639591665279 68.33063200625483 H 0.0 **** 0.06
28264 H 96.00872850654824 46.694204548036424 67.90389183944549 H 0.0 **** 0.06
28265 H 96.49752139877407 46.75908461304877 69.61351123164326 H 0.0 **** 0.06
28266 C 89.77034730101607 118.26489369931716 59.76726408158018 C 0.0 **** -0.24
28267 H 89.14003366419777 117.77042779130915 60.50603652522227 H 0.0 **** 0.06
28268 H 90.52243255917264 118.86818899809826 60.27700342083503 H 0.0 **** 0.06
28269 H 89.1557390879025 118.90663650192636 59.13677742062737 H 0.0 **** 0.06
28270 H 90.26389888442733 117.51436565248821 59.14993673940114 H 0.0 **** 0.06
28271 C 73.5065946304342 74.92146720137794 31.515135918765253 C 0.0 **** -0.24
28272 H 73.60043960388163 75.63330466036695 32.33615736160047 H 0.0 **** 0.06
28273 H 74.11690973486697 75.25377896931087 30.674624166338134 H 0.0 **** 0.06
28274 H 72.46391536743198 74.85929406243116 31.206228280624003 H 0.0 **** 0.06
28275 H 73.84716697380915 73.94031589102474 31.846551332799635 H 0.0 **** 0.06
28276 C 67.54236628172191 69.28989248923753 9.816477804574276 C 0.0 **** -0.24
28277 H 67.08269719647143 68.30373316743635 9.7511731994951 H 0.0 **** 0.06
28278 H 67.25535596286755 69.88137307127039 8.946765554639455 H 0.0 **** 0.06
28279 H 68.62731828875701 69.18469092594196 9.842078314943109 H 0.0 **** 0.06
28280 H 67.2039893403313 69.78949767866251 10.723677458270402 H 0.0 **** 0.06
28281 C 18.562804156527736 86.75027283735085 114.6753450117519 C 0.0 **** -0.24
28282 H 17.568310657516307 86.93218632934463 115.0838383192401 H 0.0 **** 0.06
28283 H 19.108989392537783 86.07712218871455 115.33529379449796 H 0.0 **** 0.06
28284 H 19.099617388496938 87.69590368031686 114.5935618291233 H 0.0 **** 0.06
28285 H 18.471963084210632 86.2974931126671 113.68729386330884 H 0.0 **** 0.06
28286 C 29.44795048831397 75.62222769870161 5.846389950501532 C 0.0 **** -0.24
28287 H 29.689747221805924 74.62976751643288 5.46551238565379 H 0.0 **** 0.06
28288 H 30.201737591538198 75.92547478474407 6.573741200542084 H 0.0 **** 0.06
28289 H 28.4689814085336 75.59931178733282 6.325446302634964 H 0.0 **** 0.06
28290 H 29.431335731378148 76.3343567062966 5.020859913175297 H 0.0 **** 0.06
28291 C 66.32550856699714 107.24865015101375 117.11877235971721 C 0.0 **** -0.24
28292 H 65.8027820351619 106.61861916255833 117.83855948509571 H 0.0 **** 0.06
28293 H 66.60119867310794 108.19090560922922 117.593396680185 H 0.0 **** 0.06
28294 H 65.67263743855466 107.44789439175045 116.26914033673059 H 0.0 **** 0.06
28295 H 67.2244738932124 106.73748171879205 116.775003954445 H 0.0 **** 0.06
28296 C 23.00019935344983 11.45101905497765 71.65286995582329 C 0.0 **** -0.24
28297 H 23.18764387557235 11.257206405108036 72.7092282310972 H 0.0 **** 0.06
28298 H 21.92715401965569 11.546323456015756 71.4866702154761 H 0.0 **** 0.06
28299 H 23.38743414986581 10.62378960365055 71.0572616368894 H 0.0 **** 0.06
28300 H 23.49816027318053 12.374810635715278 71.35934385388981 H 0.0 **** 0.06
28301 C 78.2915906227407 26.330025149331455 110.7853772252374 C 0.0 **** -0.24
28302 H 78.0061156780439 26.583061985258546 109.76389201497179 H 0.0 **** 0.06
28303 H 79.35466669902229 26.526446161817972 110.9250898541321 H 0.0 **** 0.06
28304 H 78.08964713635388 25.274617640905284 110.9678967625142 H 0.0 **** 0.06
28305 H 77.714590072797 26.935826859798844 111.4842121367067 H 0.0 **** 0.06
28306 C 52.9734020796748 101.69004464334051 112.56066021242405 C 0.0 **** -0.24
28307 H 53.43883433016336 102.57457860112703 112.99523132731585 H 0.0 **** 0.06
28308 H 53.474095109123056 100.79658424552537 112.9342383191128 H 0.0 **** 0.06
28309 H 53.062332115857174 101.72997667017677 111.47487871047153 H 0.0 **** 0.06
28310 H 51.9198251695349 101.6606238274261 112.83884304685199 H 0.0 **** 0.06
28311 C 99.64393091917984 62.356472925898004 31.38611765029711 C 0.0 **** -0.24
28312 H 99.98399959091435 61.328356791656006 31.50746442934276 H 0.0 **** 0.06
28313 H 100.3488660936502 63.031639468872754 31.87123218240808 H 0.0 **** 0.06
28314 H 98.6595907304667 62.46971042534585 31.84058683719519 H 0.0 **** 0.06
28315 H 99.58413277765743 62.595616417446195 30.324223984055692 H 0.0 **** 0.06
28316 C 55.3600390369694 25.72395604194878 118.41876560760386 C 0.0 **** -0.24
28317 H 54.62718991204784 25.658102052530637 119.22350782397626 H 0.0 **** 0.06
28318 H 55.00595068353519 26.42515154140409 117.6620549824629 H 0.0 **** 0.06
28319 H 55.49334929867226 24.74072138581664 117.96867395483565 H 0.0 **** 0.06
28320 H 56.310455256129075 26.073144892936227 118.8207191485796 H 0.0 **** 0.06
28321 C 69.29025774521409 115.48052937930612 113.66241001072035 C 0.0 **** -0.24
28322 H 69.03729837689082 116.50311571116934 113.38076595641519 H 0.0 **** 0.06
28323 H 68.4299617524756 115.01385776222394 114.14222140740067 H 0.0 **** 0.06
28324 H 70.13172956561772 115.49284407558363 114.35666516319819 H 0.0 **** 0.06
28325 H 69.562369055548 114.91409189579569 112.77215131603582 H 0.0 **** 0.06
28326 C 70.15635382999395 78.5752473861339 101.15562768253531 C 0.0 **** -0.24
28327 H 69.17134336806328 78.31436623906202 100.76752069372654 H 0.0 **** 0.06
28328 H 70.91490158568462 77.97277348230108 100.65415966911803 H 0.0 **** 0.06
28329 H 70.18781981618031 78.38122173953525 102.22740306229758 H 0.0 **** 0.06
28330 H 70.35168929378165 79.63138990737363 100.97134103474497 H 0.0 **** 0.06
28331 C 114.31585767225184 102.00802890865876 5.009115530121534 C 0.0 **** -0.24
28332 H 113.44115276583206 101.36047047035132 5.071099200801626 H 0.0 **** 0.06
28333 H 114.59963998395318 102.33071905948256 6.010949971974213 H 0.0 **** 0.06
28334 H 114.07995444664584 102.87913822698096 4.398798623503097 H 0.0 **** 0.06
28335 H 115.14201038379908 101.459745997389 4.556229093814665 H 0.0 **** 0.06
28336 C 3.9954702454625135 95.72105819804813 22.058108681708873 C 0.0 **** -0.24
28337 H 3.111325467422276 95.11698829216778 21.85663889042784 H 0.0 **** 0.06
28338 H 4.660191086236011 95.69164595078098 21.19518420694087 H 0.0 **** 0.06
28339 H 4.514737116526305 95.32376611162317 22.931292849506924 H 0.0 **** 0.06
28340 H 3.695555081572934 96.75085038354007 22.25248595484255 H 0.0 **** 0.06
28341 C 103.2867515455834 113.20933338161578 30.08137041018142 C 0.0 **** -0.24
28342 H 104.36172711742682 113.22716130117514 30.256270837484735 H 0.0 **** 0.06
28343 H 102.87457848810476 114.2044901960898 30.24823218655655 H 0.0 **** 0.06
28344 H 102.81913328791467 112.50277788108482 30.766905999339173 H 0.0 **** 0.06
28345 H 103.0906038933652 112.9018976916097 29.053829653374947 H 0.0 **** 0.06
28346 C 84.49355732136902 116.83654670309542 15.019649353806074 C 0.0 **** -0.24
28347 H 83.62459467307562 117.29035131212481 15.494451171846379 H 0.0 **** 0.06
28348 H 84.18258805282613 116.31782839382127 14.113262597327434 H 0.0 **** 0.06
28349 H 84.95376891005967 116.12515478240671 15.70612182774704 H 0.0 **** 0.06
28350 H 85.2153612330194 117.61339932909172 14.764162019977903 H 0.0 **** 0.06
28351 C 102.38445051857545 77.72341851374637 6.529429705508534 C 0.0 **** -0.24
28352 H 101.98508835972598 77.29448121735342 7.448313384105319 H 0.0 **** 0.06
28353 H 103.22433457204906 77.12192481414695 6.182166610607936 H 0.0 **** 0.06
28354 H 102.721901433261 78.74254068493215 6.721368552810844 H 0.0 **** 0.06
28355 H 101.60636448371457 77.7364223169917 5.766208510731332 H 0.0 **** 0.06
28356 C 65.98429834237672 61.30128150467891 24.574379286102925 C 0.0 **** -0.24
28357 H 65.22780614250482 61.698285640120275 23.897748799875444 H 0.0 **** 0.06
28358 H 66.97518381321603 61.477685696478375 24.155171522039666 H 0.0 **** 0.06
28359 H 65.8293610568937 60.2302277961719 24.702835249463334 H 0.0 **** 0.06
28360 H 65.90424253636269 61.79798764886644 25.54089084565993 H 0.0 **** 0.06
28361 C 63.81736018790173 88.57004939399906 32.79649442350515 C 0.0 **** -0.24
28362 H 63.00342686215782 88.70586056741985 33.5082769775613 H 0.0 **** 0.06
28363 H 64.5435340242916 87.86801744548137 33.205715934082235 H 0.0 **** 0.06
28364 H 64.3019617158447 89.52844378082034 32.610803518363674 H 0.0 **** 0.06
28365 H 63.41944868009762 88.17705080363481 31.86076202308169 H 0.0 **** 0.06
28366 C 65.73526371171624 82.92265137760808 59.09131589400955 C 0.0 **** -0.24
28367 H 64.89558167893674 83.54305743955274 58.77866761099528 H 0.0 **** 0.06
28368 H 66.38644568751414 83.49844072678152 59.749075907885675 H 0.0 **** 0.06
28369 H 66.29611010811567 82.6028304232947 58.21399021090371 H 0.0 **** 0.06
28370 H 65.36154769368605 82.04773403680576 59.62349778869049 H 0.0 **** 0.06
28371 C 28.75321104693448 118.87216949942885 50.923486803618864 C 0.0 **** -0.24
28372 H 29.322000975622515 119.53757924810517 51.57194063808771 H 0.0 **** 0.06
28373 H 29.210890636601206 117.88270815195463 50.927389200758675 H 0.0 **** 0.06
28374 H 28.75305097918755 119.26856009155105 49.90827154386512 H 0.0 **** 0.06
28375 H 27.727783136718926 118.8002525923747 51.28613419935738 H 0.0 **** 0.06
28376 C 70.05337493407782 62.65322107415931 31.663874152243352 C 0.0 **** -0.24
28377 H 69.06706030947768 62.24393719014184 31.884105338729626 H 0.0 **** 0.06
28378 H 69.9735777581362 63.72889788264988 31.50384153182739 H 0.0 **** 0.06
28379 H 70.45007365026035 62.180370813860314 30.766142980083714 H 0.0 **** 0.06
28380 H 70.72195919346112 62.4591070016995 32.50340346425054 H 0.0 **** 0.06
28381 C 42.56932883431338 107.27913281562232 88.3425668250525 C 0.0 **** -0.24
28382 H 42.40095599348385 108.00721995365436 87.54850931645771 H 0.0 **** 0.06
28383 H 43.58832251659351 106.89834186954792 88.27591337850765 H 0.0 **** 0.06
28384 H 41.863784069480005 106.45472985363998 88.2345577110757 H 0.0 **** 0.06
28385 H 42.42236214457415 107.75857879512816 89.31031002846274 H 0.0 **** 0.06
28386 C 90.00004478966741 24.249039662404414 28.96176607835889 C 0.0 **** -0.24
28387 H 90.98077047960237 24.19755359137548 29.436340590996622 H 0.0 **** 0.06
28388 H 89.58703411951785 25.2488201839991 29.08909856335029 H 0.0 **** 0.06
28389 H 89.33453515228155 23.518946042107558 29.42370316173057 H 0.0 **** 0.06
28390 H 90.099664167495 24.028396463391758 27.899228033029743 H 0.0 **** 0.06
28391 C 57.5370512124249 6.872331781983718 79.5271900848339 C 0.0 **** -0.24
28392 H 57.7045835236716 6.091198990630916 78.78546030012578 H 0.0 **** 0.06
28393 H 58.255170807347156 7.67860923443348 79.37371188301972 H 0.0 **** 0.06
28394 H 57.665382267730934 6.4567692406140775 80.52719885814125 H 0.0 **** 0.06
28395 H 56.52403543870497 7.26171814530592 79.42241455164336 H 0.0 **** 0.06
28396 C 36.910959203306916 15.40498217840748 117.58530331103896 C 0.0 **** -0.24
28397 H 36.147393744256334 15.95557278703636 117.03409150715277 H 0.0 **** 0.06
28398 H 36.6177168126942 15.326621944846458 118.63255695195113 H 0.0 **** 0.06
28399 H 37.86202343777231 15.933026289219146 117.51186050365502 H 0.0 **** 0.06
28400 H 37.01537690629495 14.406526351155904 117.1607206068694 H 0.0 **** 0.06
28401 C 110.20695764988528 107.75654770968106 83.27501596113521 C 0.0 **** -0.24
28402 H 110.12679470464906 108.73376680895052 82.80035479720516 H 0.0 **** 0.06
28403 H 110.3728959365425 106.99501504878415 82.51241048304536 H 0.0 **** 0.06
28404 H 109.28455701450312 107.53763854091244 83.81246305908749 H 0.0 **** 0.06
28405 H 111.04255567157 107.7600970181588 83.97391998592735 H 0.0 **** 0.06
28406 C 45.387693324658045 28.06038031088959 59.331197742892336 C 0.0 **** -0.24
28407 H 44.53673896582498 27.644270794859175 59.87052428728082 H 0.0 **** 0.06
28408 H 45.415942155905185 27.647438751529094 58.322414370866746 H 0.0 **** 0.06
28409 H 46.309760145921615 27.805746920986003 59.85474549075665 H 0.0 **** 0.06
28410 H 45.28875875092996 29.145038233228476 59.27803977956878 H 0.0 **** 0.06
28411 C 83.70593461342884 76.51694863757925 1.7068141625876194 C 0.0 **** -0.24
28412 H 84.51116082853073 76.42030565327465 2.434551340502537 H 0.0 **** 0.06
28413 H 84.05764074552624 76.1853288712685 0.7304220115947828 H 0.0 **** 0.06
28414 H 83.39450292168357 77.55958721077454 1.6460057951333624 H 0.0 **** 0.06
28415 H 82.86078811096309 75.90249122585354 2.01720915618327 H 0.0 **** 0.06
28416 C 52.94327948053359 55.38998046404993 64.57006093845348 C 0.0 **** -0.24
28417 H 53.11705994983197 54.83160222498623 63.65022689985182 H 0.0 **** 0.06
28418 H 52.26967902464452 56.222249923891354 64.36715083318799 H 0.0 **** 0.06
28419 H 53.89169364806821 55.771560005839206 64.94698683895155 H 0.0 **** 0.06
28420 H 52.49452472411991 54.73192660905511 65.31473799056073 H 0.0 **** 0.06
28421 C 59.886969409897695 18.152055615790232 81.84544758620223 C 0.0 **** -0.24
28422 H 59.68653851538463 17.61000091780629 82.76941495967884 H 0.0 **** 0.06
28423 H 59.951379824191854 19.219477049375726 82.05696203254286 H 0.0 **** 0.06
28424 H 59.08075597275617 17.969967156111167 81.13503486147442 H 0.0 **** 0.06
28425 H 60.83031572395243 17.807953453662975 81.42008883229175 H 0.0 **** 0.06
28426 C 53.70118986860555 5.703155057455811 44.503793330076775 C 0.0 **** -0.24
28427 H 52.733338886455975 5.344548609893529 44.15238117373437 H 0.0 **** 0.06
28428 H 53.939635552637924 6.645898546244634 44.0109059533861 H 0.0 **** 0.06
28429 H 54.468204538977055 4.965466116320673 44.2697868318979 H 0.0 **** 0.06
28430 H 53.661595160658216 5.855750547905744 45.582478855590495 H 0.0 **** 0.06
28431 C 11.676710003221473 50.45494090732848 24.07289405372552 C 0.0 **** -0.24
28432 H 11.346360579173279 49.97351221532182 23.153236422783422 H 0.0 **** 0.06
28433 H 11.250090126190486 51.456091702695375 24.132585938437487 H 0.0 **** 0.06
28434 H 12.764924006284474 50.52313548980047 24.076688377582883 H 0.0 **** 0.06
28435 H 11.34710387031069 49.86648705642466 24.92922894093462 H 0.0 **** 0.06
28436 C 101.40128341594013 96.16059842540443 31.703398773794106 C 0.0 **** -0.24
28437 H 100.88563988624273 95.20518262018953 31.61409661535359 H 0.0 **** 0.06
28438 H 100.77498970842015 96.86159179395452 32.255897737179254 H 0.0 **** 0.06
28439 H 101.60379655044906 96.55878044203774 30.709046676914113 H 0.0 **** 0.06
28440 H 102.34192944164482 96.01689914137665 32.23526356252833 H 0.0 **** 0.06
28441 C 81.18594775112498 44.971778604016464 21.855166186987194 C 0.0 **** -0.24
28442 H 81.1476660283337 44.11808561146292 22.531969235222224 H 0.0 **** 0.06
28443 H 81.95323911108684 44.80197415040096 21.099017354019946 H 0.0 **** 0.06
28444 H 81.42493572986555 45.87192692327549 22.42080942579397 H 0.0 **** 0.06
28445 H 80.21715716490775 45.09422301589975 21.370114872748022 H 0.0 **** 0.06
28446 C 109.3323127805744 6.83869807346565 58.96151015169323 C 0.0 **** -0.24
28447 H 108.7995866883791 7.735003285059577 58.64391379906854 H 0.0 **** 0.06
28448 H 108.63742792090227 6.158935435006526 59.45478934848305 H 0.0 **** 0.06
28449 H 110.1256978073774 7.114668422205909 59.65675412806357 H 0.0 **** 0.06
28450 H 109.76653870563868 6.346185151590646 58.090583331157774 H 0.0 **** 0.06
28451 C 95.31647780315362 48.46607793695069 99.27017958977336 C 0.0 **** -0.24
28452 H 94.27308463177584 48.15340084013717 99.31932565918507 H 0.0 **** 0.06
28453 H 95.91902764366293 47.657085747862894 98.85555569310725 H 0.0 **** 0.06
28454 H 95.67133990863212 48.70660259713849 100.27274299953723 H 0.0 **** 0.06
28455 H 95.40169475968378 49.346499146366554 98.6340388242231 H 0.0 **** 0.06
28456 C 40.66637103740517 84.88100414191447 42.237304938658355 C 0.0 **** -0.24
28457 H 40.18825526432786 84.07425514612845 42.79204440923772 H 0.0 **** 0.06
28458 H 40.16545523726521 85.82356508009792 42.462017887936845 H 0.0 **** 0.06
28459 H 40.59791718992145 84.67827853358543 41.16867219181107 H 0.0 **** 0.06
28460 H 41.71504219919346 84.94938898972447 42.52714091508836 H 0.0 **** 0.06
28461 C 56.22853083760963 100.37695276360444 49.242414449777925 C 0.0 **** -0.24
28462 H 55.16292017628236 100.44713207082975 49.45939214226297 H 0.0 **** 0.06
28463 H 56.52868178840078 99.32920500315004 49.229860494053526 H 0.0 **** 0.06
28464 H 56.79059537696761 100.90746021141689 50.010733944053925 H 0.0 **** 0.06
28465 H 56.43132869904661 100.82480615228121 48.26979534932059 H 0.0 **** 0.06
28466 C 115.08346969188517 48.7055819898153 52.39999206713736 C 0.0 **** -0.24
28467 H 114.03712544296124 48.41313735435256 52.4904986605697 H 0.0 **** 0.06
28468 H 115.40504019227438 48.58616386468867 51.3651073749017 H 0.0 **** 0.06
28469 H 115.69331557836844 48.074292197109855 53.04620237125192 H 0.0 **** 0.06
28470 H 115.19551041659778 49.7480225323352 52.69776236255626 H 0.0 **** 0.06
28471 C 19.033338174903292 95.92377881022375 23.858335656533512 C 0.0 **** -0.24
28472 H 19.93329960614676 96.38785854183578 23.45585590963978 H 0.0 **** 0.06
28473 H 18.935642934738553 96.17505956112228 24.91529464142728 H 0.0 **** 0.06
28474 H 19.102349439358477 94.8412554279598 23.747213237053984 H 0.0 **** 0.06
28475 H 18.161807361691388 96.2895225561563 23.315939040072095 H 0.0 **** 0.06
28476 C 67.00499230251165 43.667938917361795 20.322476636947783 C 0.0 **** -0.24
28477 H 67.46094369937217 43.18779341663438 19.455910848830058 H 0.0 **** 0.06
28478 H 65.94112082301257 43.43265594169401 20.34964196269061 H 0.0 **** 0.06
28479 H 67.13780606979117 44.74694741707884 20.25153538367624 H 0.0 **** 0.06
28480 H 67.48086569583458 43.301792727506864 21.231466721082086 H 0.0 **** 0.06
28481 C 1.1819855657731928 98.70399514247362 115.87727060824639 C 0.0 **** -0.24
28482 H 0.9956987839215454 97.63165166060509 115.94204176663061 H 0.0 **** 0.06
28483 H 0.9425230572554835 99.05426247248892 114.87256410706124 H 0.0 **** 0.06
28484 H 2.2320854084465527 98.90349738297704 116.09078347775653 H 0.0 **** 0.06
28485 H 0.5575514119171512 99.22520352471116 116.6026307648714 H 0.0 **** 0.06
28486 C 6.86611630585784 64.79193420415999 40.42000364376506 C 0.0 **** -0.24
28487 H 7.376292794711496 64.41233934139876 39.53443586606889 H 0.0 **** 0.06
28488 H 7.409741743966617 65.65124333416497 40.81165492515021 H 0.0 **** 0.06
28489 H 6.825117561896327 64.00981251770827 41.178022332894614 H 0.0 **** 0.06
28490 H 5.852789725412487 65.09262805205276 40.15311032704989 H 0.0 **** 0.06
28491 C 57.24332941963228 109.26482293438391 60.49157749805354 C 0.0 **** -0.24
28492 H 56.583543858330636 109.71891675564254 61.23065419456419 H 0.0 **** 0.06
28493 H 57.9875695435635 109.99561841479942 60.172743275817616 H 0.0 **** 0.06
28494 H 56.65712004148059 108.94321129094288 59.63103112714722 H 0.0 **** 0.06
28495 H 57.74467716131462 108.40374405300494 60.932881405977874 H 0.0 **** 0.06
28496 C 33.71002863124713 80.95063253662227 99.86957181008873 C 0.0 **** -0.24
28497 H 34.17767528192215 80.79097516882405 100.84127738350429 H 0.0 **** 0.06
28498 H 33.45692813130211 79.98745772731652 99.42616228270003 H 0.0 **** 0.06
28499 H 34.40353278150744 81.48066981588366 99.21671803965492 H 0.0 **** 0.06
28500 H 32.80400865826786 81.54318899691924 99.9950357400439 H 0.0 **** 0.06
28501 C 115.73739763142716 12.576848744199367 59.28339054606769 C 0.0 **** -0.24
28502 H 116.10578109265663 13.194052150050595 58.46422442997425 H 0.0 **** 0.06
28503 H 115.1631499214344 13.193697009175537 59.973839884691614 H 0.0 **** 0.06
28504 H 116.58085564567769 12.130506859280274 59.809767831414405 H 0.0 **** 0.06
28505 H 115.09997199376468 11.787505429530881 58.884212273513015 H 0.0 **** 0.06
28506 C 17.033594805024688 5.9560102546872145 112.61785406160973 C 0.0 **** -0.24
28507 H 17.647112021292628 6.3506183245822 113.42814518224287 H 0.0 **** 0.06
28508 H 16.15849893672877 6.591369214233623 112.48291052338813 H 0.0 **** 0.06
28509 H 16.713868620927443 4.943387946674449 112.86456202792155 H 0.0 **** 0.06
28510 H 17.615997061096632 5.938478193551674 111.6966706885632 H 0.0 **** 0.06
28511 C 3.243841950776414 11.554073382743638 40.9495371946532 C 0.0 **** -0.24
28512 H 3.4609541600220552 11.739932436474788 42.001129433260644 H 0.0 **** 0.06
28513 H 3.4790726716991855 12.445332265256809 40.36757955356097 H 0.0 **** 0.06
28514 H 2.1860961218827413 11.314004353047096 40.83480585335991 H 0.0 **** 0.06
28515 H 3.847304254504678 10.718690837099416 40.59584133267634 H 0.0 **** 0.06
28516 C 44.0734329146468 74.44919350202824 37.88722193904603 C 0.0 **** -0.24
28517 H 43.65242025417945 74.02219115640472 38.796854745223726 H 0.0 **** 0.06
28518 H 44.994807949888255 73.92508730425277 37.63296750624039 H 0.0 **** 0.06
28519 H 44.28816683484395 75.50531128146523 38.047206592812614 H 0.0 **** 0.06
28520 H 43.3581534137118 74.34252188740618 37.071408236089866 H 0.0 **** 0.06
28521 C 55.85433387763191 58.30916237360898 57.54787616826434 C 0.0 **** -0.24
28522 H 54.901515860757776 58.75673460580672 57.263551447486066 H 0.0 **** 0.06
28523 H 55.852939723392105 57.2521415954435 57.28335272659561 H 0.0 **** 0.06
28524 H 55.998050091742805 58.41550792368138 58.6237976007923 H 0.0 **** 0.06
28525 H 56.664170734653474 58.81458411833102 57.02123803315382 H 0.0 **** 0.06
28526 C 10.95276281570301 113.3636033843606 14.33903539921971 C 0.0 **** -0.24
28527 H 11.683833184741957 112.55632414861608 14.309255226725043 H 0.0 **** 0.06
28528 H 10.717023564586611 113.6020575123436 15.377549419337868 H 0.0 **** 0.06
28529 H 10.044524468214945 113.05179636096423 13.823236933338137 H 0.0 **** 0.06
28530 H 11.365043345502556 114.24547148729096 13.848119911665975 H 0.0 **** 0.06
28531 C 67.57331888153325 25.8424470050023 20.135527996118924 C 0.0 **** -0.24
28532 H 68.18786303093248 26.43903131195708 20.81031334702297 H 0.0 **** 0.06
28533 H 66.52142532284529 25.9850623093906 20.381902408819542 H 0.0 **** 0.06
28534 H 67.83357586163717 24.789964711946027 20.24298418136803 H 0.0 **** 0.06
28535 H 67.75241392645708 26.158339505429325 19.107335155553955 H 0.0 **** 0.06
28536 C 28.6933284915401 38.02192032775733 70.40525375945683 C 0.0 **** -0.24
28537 H 28.71634305520982 37.265171751240445 69.6217006754506 H 0.0 **** 0.06
28538 H 27.6643853875229 38.34051518484645 70.57147638293208 H 0.0 **** 0.06
28539 H 29.29447916689655 38.878830857437976 70.10141042354246 H 0.0 **** 0.06
28540 H 29.098106356531332 37.60316351750434 71.32642755590214 H 0.0 **** 0.06
28541 C 107.3189723550766 44.78676148891237 88.15127035979685 C 0.0 **** -0.24
28542 H 106.27402494823349 44.89038414156155 88.44242631854686 H 0.0 **** 0.06
28543 H 107.38858025965314 44.72014499014181 87.06495013747443 H 0.0 **** 0.06
28544 H 107.73166320925162 43.881802686625406 88.59810079993201 H 0.0 **** 0.06
28545 H 107.88147416414199 45.65301263234261 88.49931522859166 H 0.0 **** 0.06
28546 C 91.7468719175767 92.06429355969763 49.413284662195906 C 0.0 **** -0.24
28547 H 91.19531715226896 92.26587008888222 50.331092246112064 H 0.0 **** 0.06
28548 H 91.18474365409276 92.444118650751 48.56019130259165 H 0.0 **** 0.06
28549 H 91.89012170778153 90.9893659918396 49.3038827323179 H 0.0 **** 0.06
28550 H 92.71870323636125 92.55680178388965 49.45787344122061 H 0.0 **** 0.06
28551 C 50.89167489246549 29.892955833450237 3.713848605296448 C 0.0 **** -0.24
28552 H 49.872874728205005 30.079279466731514 4.052375191390013 H 0.0 **** 0.06
28553 H 50.9583968070701 30.079839475942244 2.6422319582379714 H 0.0 **** 0.06
28554 H 51.15927440867125 28.856143124037565 3.9195486796825776 H 0.0 **** 0.06
28555 H 51.577012721296626 30.556065793829433 4.241367121766984 H 0.0 **** 0.06
28556 C 43.51174587375833 8.328492912812948 31.169734490272674 C 0.0 **** -0.24
28557 H 43.24361517846812 7.286150054715051 31.341847416513588 H 0.0 **** 0.06
28558 H 44.597569551121786 8.431511938507214 31.181468565296385 H 0.0 **** 0.06
28559 H 43.08010278236735 8.948337352649673 31.95568085550198 H 0.0 **** 0.06
28560 H 43.1260257760798 8.648127992427845 30.20214731753933 H 0.0 **** 0.06
28561 C 7.7014718231192205 10.18785115348328 94.26482584144844 C 0.0 **** -0.24
28562 H 8.316195466638987 9.58076692195354 93.59857417920136 H 0.0 **** 0.06
28563 H 7.900578986828805 11.24350893385855 94.07985944693007 H 0.0 **** 0.06
28564 H 7.9420566207352294 9.94707349338799 95.30002273420394 H 0.0 **** 0.06
28565 H 6.648515454670644 9.977715213861586 94.07852417263746 H 0.0 **** 0.06
28566 C 18.420167873600747 90.85078930467466 96.18720361924841 C 0.0 **** -0.24
28567 H 19.460135905758676 91.1728855073317 96.24769449878292 H 0.0 **** 0.06
28568 H 17.966341120649204 90.9028353646114 97.17636639507924 H 0.0 **** 0.06
28569 H 18.378854868364545 89.82464635260033 95.82157476119247 H 0.0 **** 0.06
28570 H 17.87748599379963 91.50282053789041 95.50255244190865 H 0.0 **** 0.06
28571 C 18.627885348530885 69.15873594484066 58.590830196223145 C 0.0 **** -0.24
28572 H 18.24943968715006 68.17755773559469 58.302102223606575 H 0.0 **** 0.06
28573 H 19.567095799835826 69.04093319985367 59.13077628377173 H 0.0 **** 0.06
28574 H 17.89926363933226 69.65468118668883 59.2313785828648 H 0.0 **** 0.06
28575 H 18.79400587459752 69.75988434917508 57.69696044690114 H 0.0 **** 0.06
28576 C 72.90027851064477 98.12292299829357 111.55417086580037 C 0.0 **** -0.24
28577 H 72.41162504935534 97.84455368667312 110.62063625465773 H 0.0 **** 0.06
28578 H 72.14471603137869 98.40944148085953 112.28743494994598 H 0.0 **** 0.06
28579 H 73.57105214331014 98.96337446310307 111.3761971865141 H 0.0 **** 0.06
28580 H 73.47087692399302 97.27570266986191 111.93250225642944 H 0.0 **** 0.06
28581 C 53.97075078931575 95.03772149308094 6.599874858937799 C 0.0 **** -0.24
28582 H 54.542799429727125 95.69990490579559 5.94983096752974 H 0.0 **** 0.06
28583 H 54.38581261247377 94.03023706142065 6.5477741471417374 H 0.0 **** 0.06
28584 H 52.930831339129206 95.01997472498192 6.276039914009399 H 0.0 **** 0.06
28585 H 54.02631312896089 95.40114783358715 7.626379966625752 H 0.0 **** 0.06
28586 C 97.29942154899993 53.98481756713977 105.58016806625457 C 0.0 **** -0.24
28587 H 97.99831649809278 54.74126876324581 105.93726750974511 H 0.0 **** 0.06
28588 H 96.96256344756154 53.37597627027216 106.41937393073846 H 0.0 **** 0.06
28589 H 97.79526841597377 53.350192027560496 104.84620224116225 H 0.0 **** 0.06
28590 H 96.44132959045712 54.4731912737422 105.11749331091895 H 0.0 **** 0.06
28591 C 17.84063258877885 50.93325628167952 106.29407959949006 C 0.0 **** -0.24
28592 H 17.82882574066416 50.06201534407765 105.6385367366282 H 0.0 **** 0.06
28593 H 18.72170527035348 51.537075588648634 106.0796182463672 H 0.0 **** 0.06
28594 H 17.86724584697422 50.605270691948846 107.33308476780243 H 0.0 **** 0.06
28595 H 16.942502188775165 51.5264946376449 106.12302232574808 H 0.0 **** 0.06
28596 C 28.650679472976265 111.6309413847707 25.41912956280312 C 0.0 **** -0.24
28597 H 27.746601836064315 112.23598547758141 25.48454988608927 H 0.0 **** 0.06
28598 H 29.3668090765961 112.11709640719309 24.75703121467012 H 0.0 **** 0.06
28599 H 28.400579035069086 110.64607266028762 25.024170122409757 H 0.0 **** 0.06
28600 H 29.088293352376525 111.5233351436579 26.411195342106737 H 0.0 **** 0.06
28601 C 85.21018845553436 3.1553916683017036 20.571886714876513 C 0.0 **** -0.24
28602 H 85.91879280745962 3.1852802537106157 19.7435666232781 H 0.0 **** 0.06
28603 H 85.30171599748226 2.203149976399345 21.09377655366424 H 0.0 **** 0.06
28604 H 84.1957974993204 3.262191497235193 20.185680243527344 H 0.0 **** 0.06
28605 H 85.42404293261339 3.9714071630753978 21.26176243659529 H 0.0 **** 0.06
28606 C 96.07377645086541 109.11694353204774 41.32663045115243 C 0.0 **** -0.24
28607 H 95.3483883856517 109.78132893964468 40.855733618838784 H 0.0 **** 0.06
28608 H 96.07028133291561 109.28118810409674 42.40410252229574 H 0.0 **** 0.06
28609 H 97.0674272465869 109.32619708759773 40.92957043695324 H 0.0 **** 0.06
28610 H 95.80816254191399 108.08115130537664 41.11468400147899 H 0.0 **** 0.06
28611 C 47.243028848675124 53.360125559674046 96.7912617751802 C 0.0 **** -0.24
28612 H 46.24052106528018 53.41278073960606 96.36634277112225 H 0.0 **** 0.06
28613 H 47.610628100108954 54.36885146079294 96.9804453796178 H 0.0 **** 0.06
28614 H 47.90832176115492 52.85608787446591 96.08930593731233 H 0.0 **** 0.06
28615 H 47.21228300199044 52.80165799649501 97.72705409645027 H 0.0 **** 0.06
28616 C 77.93532789715019 82.58556452207515 83.78839474828524 C 0.0 **** -0.24
28617 H 78.2726063484352 81.58303490696196 83.52286836913726 H 0.0 **** 0.06
28618 H 77.06181204134893 82.51480011390919 84.43665243436331 H 0.0 **** 0.06
28619 H 77.673754103562 83.13244494160935 82.88230835657345 H 0.0 **** 0.06
28620 H 78.73473613960235 83.11015126597837 84.3114145961043 H 0.0 **** 0.06
28621 C 28.91382545147919 89.80410656622539 19.608622700430235 C 0.0 **** -0.24
28622 H 29.50046420552897 89.58710444330941 20.501486430188628 H 0.0 **** 0.06
28623 H 27.90483787375863 90.0962746336665 19.89947911261196 H 0.0 **** 0.06
28624 H 28.86873574337374 88.91586452970967 18.978823092790105 H 0.0 **** 0.06
28625 H 29.38317619400086 90.61909618047738 19.055528211581056 H 0.0 **** 0.06
28626 C 23.718822119709216 41.66515354789291 34.718007338366306 C 0.0 **** -0.24
28627 H 22.67562918961147 41.883770349198215 34.94906761610832 H 0.0 **** 0.06
28628 H 24.144437601943594 42.49130674784527 34.147216657508466 H 0.0 **** 0.06
28629 H 23.776900748113803 40.74891623064971 34.13085693874734 H 0.0 **** 0.06
28630 H 24.27751673878697 41.53857259991159 35.64562589512178 H 0.0 **** 0.06
28631 C 69.98873544483982 99.01034954787949 78.48520981728356 C 0.0 **** -0.24
28632 H 70.52799791401526 98.20787840325622 77.9832620716023 H 0.0 **** 0.06
28633 H 70.64938821563766 99.86909494781634 78.60976061341202 H 0.0 **** 0.06
28634 H 69.65273145615711 98.6659123406524 79.46400447669569 H 0.0 **** 0.06
28635 H 69.12510913877242 99.29954224144976 77.88601637367165 H 0.0 **** 0.06
28636 C 104.96629931355054 114.08335771649749 39.72748716626293 C 0.0 **** -0.24
28637 H 105.54037280293389 114.11080948157465 40.653773089354274 H 0.0 **** 0.06
28638 H 103.90112373653463 114.1098558833585 39.95935450502492 H 0.0 **** 0.06
28639 H 105.19702110117984 113.16678242844108 39.183471691183456 H 0.0 **** 0.06
28640 H 105.22667961355415 114.94598307261572 39.11334937948928 H 0.0 **** 0.06
28641 C 8.892877108033261 103.86872091383958 86.5084775738132 C 0.0 **** -0.24
28642 H 8.23615909606093 103.1914963317933 85.96196232605877 H 0.0 **** 0.06
28643 H 8.920260988487087 103.57794876609188 87.55976887097125 H 0.0 **** 0.06
28644 H 8.515404386483581 104.8875690868498 86.42377048302552 H 0.0 **** 0.06
28645 H 9.898043680143886 103.81669672515403 86.09084474574138 H 0.0 **** 0.06
28646 C 103.88625403094102 1.982717810147287 118.14333498174635 C 0.0 **** -0.24
28647 H 104.93513328855073 2.1566493397194524 118.38440492871447 H 0.0 **** 0.06
28648 H 103.70254847884516 2.2545979965033105 117.10477015608203 H 0.0 **** 0.06
28649 H 103.25856935109107 2.5896907084038823 118.79567492675206 H 0.0 **** 0.06
28650 H 103.65017772691161 0.9279032271384082 118.2901881413292 H 0.0 **** 0.06
28651 C 31.153955478282114 0.15081214665580944 4.704815335615393 C 0.0 **** -0.24
28652 H 31.526780980456465 -0.7787220803409411 5.135292802053016 H 0.0 **** 0.06
28653 H 30.078831027355847 0.07190996948925488 4.546343320161071 H 0.0 **** 0.06
28654 H 31.649482952952354 0.33333369267650426 3.7509316872852594 H 0.0 **** 0.06
28655 H 31.36237590455343 0.9756021499835157 5.386567467283044 H 0.0 **** 0.06
28656 C 19.979057500409567 73.63937655930843 85.21991037027104 C 0.0 **** -0.24
28657 H 20.24059152492805 74.69253275668956 85.318993685832 H 0.0 **** 0.06
28658 H 20.459382743802905 73.06889885748859 86.01545828033275 H 0.0 **** 0.06
28659 H 20.318070854083345 73.26983969667006 84.25204104461474 H 0.0 **** 0.06
28660 H 18.897090071614628 73.52546338519736 85.29424678585366 H 0.0 **** 0.06
28661 C 32.23339479280634 40.45995713533114 66.08310094604852 C 0.0 **** -0.24
28662 H 33.284896219319734 40.37973073614509 65.80615495053556 H 0.0 **** 0.06
28663 H 31.728785519484006 41.14317877519741 65.3991387342679 H 0.0 **** 0.06
28664 H 32.15343508865172 40.839439360213134 67.10119828267207 H 0.0 **** 0.06
28665 H 31.767256420389742 39.47645348694229 66.02476439926915 H 0.0 **** 0.06
28666 C 81.33762853389885 32.928803138430794 107.05400532535961 C 0.0 **** -0.24
28667 H 82.35949725827916 32.782674339779135 106.70432227081648 H 0.0 **** 0.06
28668 H 80.7898247297747 31.98923572462496 106.97600733490631 H 0.0 **** 0.06
28669 H 80.84863429244575 33.686307664709176 106.44144504505917 H 0.0 **** 0.06
28670 H 81.3530519832259 33.255114603377024 108.09314170798885 H 0.0 **** 0.06
28671 C 72.52963015163172 27.946919652545517 38.11020351831082 C 0.0 **** -0.24
28672 H 71.55222951938879 27.570685792080333 38.41346198584536 H 0.0 **** 0.06
28673 H 73.2440475801649 27.124075512092837 38.08897107593292 H 0.0 **** 0.06
28674 H 72.86396761951292 28.70266478748539 38.82073733140091 H 0.0 **** 0.06
28675 H 72.45529390397277 28.38893596746628 37.117031216240306 H 0.0 **** 0.06
28676 C 76.53841048061611 2.916290877434605 72.17510273960912 C 0.0 **** -0.24
28677 H 77.48760477958959 3.428584063351579 72.02092949331899 H 0.0 **** 0.06
28678 H 76.7236780142764 1.9287354917589568 72.59869207375587 H 0.0 **** 0.06
28679 H 76.02288004562467 2.811502335872021 71.22022351825066 H 0.0 **** 0.06
28680 H 75.92051358002692 3.4954027273983144 72.8607859094312 H 0.0 **** 0.06
28681 C 90.37810756521122 29.865959366602 91.33429935976528 C 0.0 **** -0.24
28682 H 90.25281615235016 28.981904093741775 91.9591864568701 H 0.0 **** 0.06
28683 H 89.41152594373216 30.35229231646963 91.1949296201451 H 0.0 **** 0.06
28684 H 90.77895259315733 29.571489981292075 90.36425058245129 H 0.0 **** 0.06
28685 H 91.06743425994247 30.557903043678095 91.81740098522889 H 0.0 **** 0.06
28686 C 54.27216234220094 117.61098812365067 30.32523380488417 C 0.0 **** -0.24
28687 H 53.2598817886481 117.60167164141477 30.729168013671895 H 0.0 **** 0.06
28688 H 54.861724008436624 118.3696011237193 30.84116499693372 H 0.0 **** 0.06
28689 H 54.23613288717917 117.84036524366842 29.260490852631797 H 0.0 **** 0.06
28690 H 54.73116737556137 116.63268246645839 30.472060441774012 H 0.0 **** 0.06
28691 C 107.03828902577979 34.393490343120504 63.04237497652318 C 0.0 **** -0.24
28692 H 106.97737210861965 34.974642623551574 62.12220122703499 H 0.0 **** 0.06
28693 H 107.60727165900644 33.481805703685325 62.85969092923855 H 0.0 **** 0.06
28694 H 106.03282596616043 34.134304035224886 63.37601871131275 H 0.0 **** 0.06
28695 H 107.53554529413361 34.983724995180694 63.81243397380618 H 0.0 **** 0.06
28696 C 37.38978047803826 7.205868459822938 69.83519619918394 C 0.0 **** -0.24
28697 H 36.66101286921551 6.983527698322291 70.6142327119837 H 0.0 **** 0.06
28698 H 38.39652830390688 7.114166140513376 70.24375845162291 H 0.0 **** 0.06
28699 H 37.23589517289409 8.221244831238025 69.47203698367082 H 0.0 **** 0.06
28700 H 37.26595293463362 6.503072100073595 69.01164440980864 H 0.0 **** 0.06
28701 C 88.21814565655444 117.92116053097101 5.638180476516595 C 0.0 **** -0.24
28702 H 87.68078150326653 118.78311835926704 6.03301209908409 H 0.0 **** 0.06
28703 H 88.09043773195583 117.87890217273988 4.556079029704279 H 0.0 **** 0.06
28704 H 87.82376999697652 117.01027598807008 6.087193488402477 H 0.0 **** 0.06
28705 H 89.27739378050882 118.0147514684322 5.876022172986211 H 0.0 **** 0.06
28706 C 106.85300699847087 67.22035595751544 63.03286057902863 C 0.0 **** -0.24
28707 H 106.88249184000762 66.86300716818909 64.06183823319847 H 0.0 **** 0.06
28708 H 107.50540879917332 66.60404498057625 62.41536307994678 H 0.0 **** 0.06
28709 H 107.19176685318698 68.25704427503587 62.99917364485649 H 0.0 **** 0.06
28710 H 105.83151529884483 67.16009977588357 62.65633234218446 H 0.0 **** 0.06
28711 C 63.570660902336904 94.94623565704893 92.26639302103683 C 0.0 **** -0.24
28712 H 63.49227782628969 94.00066105875331 91.72949045436903 H 0.0 **** 0.06
28713 H 64.37264371964417 94.88023592849743 93.0026513004415 H 0.0 **** 0.06
28714 H 62.62843182304703 95.15467263288869 92.77275349691794 H 0.0 **** 0.06
28715 H 63.78986938246627 95.74721334452965 91.56070404772845 H 0.0 **** 0.06
28716 C 77.38456971107775 73.6730456726188 66.064230838132 C 0.0 **** -0.24
28717 H 77.43429520330892 74.45072962039598 66.8250563805247 H 0.0 **** 0.06
28718 H 76.75902615796451 74.01268631254203 65.23812059876064 H 0.0 **** 0.06
28719 H 76.95599896715271 72.7685262317591 66.49640475805944 H 0.0 **** 0.06
28720 H 78.3888000755764 73.45932305474119 65.69697664652182 H 0.0 **** 0.06
28721 C 21.868950097664626 54.02267419638781 32.56160378580063 C 0.0 **** -0.24
28722 H 22.4152277518833 54.911242870705166 32.245548425436226 H 0.0 **** 0.06
28723 H 22.155909631881116 53.76276517815688 33.58122193990067 H 0.0 **** 0.06
28724 H 22.107589754671046 53.193885171236445 31.894248183746015 H 0.0 **** 0.06
28725 H 20.798643647021763 54.222043596809556 32.52367710024464 H 0.0 **** 0.06
28726 C 12.090755015129034 7.676323523861612 48.88561601161328 C 0.0 **** -0.24
28727 H 12.445191583412765 8.44683782102021 48.19981859550878 H 0.0 **** 0.06
28728 H 12.519223699405899 7.846152265607316 49.87379787887535 H 0.0 **** 0.06
28729 H 12.396825298055745 6.696765385010025 48.519159508504586 H 0.0 **** 0.06
28730 H 11.003426740979378 7.717881670679475 48.94801554881452 H 0.0 **** 0.06
28731 C 57.08370799027697 27.980778215632398 9.838943515683809 C 0.0 **** -0.24
28732 H 56.479874183726515 27.538450137495772 10.632231774038843 H 0.0 **** 0.06
28733 H 58.10707299919137 28.10998217020895 10.191138008106151 H 0.0 **** 0.06
28734 H 56.66818398142677 28.951362622709496 9.56499028575351 H 0.0 **** 0.06
28735 H 57.07716216715138 27.323909987245912 8.969905097338838 H 0.0 **** 0.06
28736 C 13.290595065186352 78.4163477606705 15.34596555877414 C 0.0 **** -0.24
28737 H 12.847023842682404 77.45255109715558 15.594439078424074 H 0.0 **** 0.06
28738 H 12.88819299603594 79.18254802775871 16.00921991509685 H 0.0 **** 0.06
28739 H 13.053701948352213 78.6692459297661 14.312657415543299 H 0.0 **** 0.06
28740 H 14.372579060198944 78.36058288588518 15.4674625106895 H 0.0 **** 0.06
28741 C 38.74355677179915 41.67172874857647 104.45229176073883 C 0.0 **** -0.24
28742 H 39.5639331630215 41.488147266544594 105.14499508463359 H 0.0 **** 0.06
28743 H 37.92452105537761 42.15984558505516 104.98143264453836 H 0.0 **** 0.06
28744 H 38.397435671955805 40.72414204687606 104.03957976279736 H 0.0 **** 0.06
28745 H 39.08837790331461 42.315750388268654 103.64292094225846 H 0.0 **** 0.06
28746 C 116.15013290491281 73.17559723889167 37.482336251118625 C 0.0 **** -0.24
28747 H 115.86726333492983 73.13560405144597 38.53422356415848 H 0.0 **** 0.06
28748 H 115.77294857062935 72.29071307981087 36.97049005964965 H 0.0 **** 0.06
28749 H 117.23676134495189 73.20885361168268 37.39973328127053 H 0.0 **** 0.06
28750 H 115.7240891008484 74.0695909995244 37.02519568559097 H 0.0 **** 0.06
28751 C 36.955143655358725 73.85164570932875 113.3924980986598 C 0.0 **** -0.24
28752 H 37.16738957681595 74.92000279659862 113.38584399520194 H 0.0 **** 0.06
28753 H 36.20655466220821 73.63417212119089 114.15440316593077 H 0.0 **** 0.06
28754 H 37.87001658048612 73.30112522327187 113.61322493102008 H 0.0 **** 0.06
28755 H 36.57788056971807 73.5500946131026 112.41511173918447 H 0.0 **** 0.06
28756 C 53.445031013817314 22.053050182744627 90.90659481436501 C 0.0 **** -0.24
28757 H 52.67086302909578 21.51547609607519 90.35827314481423 H 0.0 **** 0.06
28758 H 53.18005051212482 22.09239223180107 91.96320690559759 H 0.0 **** 0.06
28759 H 53.53039143361596 23.066223919562248 90.51381606517907 H 0.0 **** 0.06
28760 H 54.39738128074834 21.536510226087273 90.7892449977924 H 0.0 **** 0.06
28761 C 29.80364524570561 46.34328432865601 76.51786701390017 C 0.0 **** -0.24
28762 H 30.355303677824423 47.23058239032849 76.20463580687499 H 0.0 **** 0.06
28763 H 28.743970281960685 46.584879011919725 76.59581254397162 H 0.0 **** 0.06
28764 H 30.17367533785091 46.008241159036515 77.48696679616111 H 0.0 **** 0.06
28765 H 29.943407258381313 45.5507692925479 75.78158978271895 H 0.0 **** 0.06
28766 C 117.04604305005297 15.181982285962647 66.61455538764883 C 0.0 **** -0.24
28767 H 117.901040185836 15.714437935870535 66.19746130835154 H 0.0 **** 0.06
28768 H 117.1462445554691 15.125944018850618 67.69884869909652 H 0.0 **** 0.06
28769 H 117.00840373731663 14.174753825180431 66.20019606185477 H 0.0 **** 0.06
28770 H 116.12894930878129 15.713927100854846 66.36100979984045 H 0.0 **** 0.06
28771 C 75.9877172008062 92.96381831882726 110.83632168797044 C 0.0 **** -0.24
28772 H 76.65019399414734 92.8766042112689 111.69761012890697 H 0.0 **** 0.06
28773 H 75.27144009836869 92.1414163845792 110.84536718027555 H 0.0 **** 0.06
28774 H 76.57581637097704 92.92403586054516 109.91935260375038 H 0.0 **** 0.06
28775 H 75.4529815622648 93.91232175919734 110.88495893443539 H 0.0 **** 0.06
28776 C 110.63336102732961 84.82026240500664 86.70153959197748 C 0.0 **** -0.24
28777 H 110.69730796579785 83.74818076436918 86.88992845325006 H 0.0 **** 0.06
28778 H 110.18763683326665 84.98910302883908 85.72054497464032 H 0.0 **** 0.06
28779 H 111.63281946367789 85.25355210577644 86.72676638474974 H 0.0 **** 0.06
28780 H 110.01495870381143 85.28698969933566 87.46747411821369 H 0.0 **** 0.06
28781 C 19.53458190031904 67.27838724940406 105.95113568544565 C 0.0 **** -0.24
28782 H 18.50040459921007 67.34440056730398 105.61090898062892 H 0.0 **** 0.06
28783 H 19.563196414977426 67.33898184815163 107.0387450047036 H 0.0 **** 0.06
28784 H 20.1092307045148 68.0994486167807 105.52433308516902 H 0.0 **** 0.06
28785 H 19.961841292023678 66.32883427930847 105.62829802140143 H 0.0 **** 0.06
28786 C 7.452541032463163 32.911896698962806 100.06416244265941 C 0.0 **** -0.24
28787 H 7.4118723274969724 33.87914096830181 100.56482713693654 H 0.0 **** 0.06
28788 H 7.9851144155237 32.19928457802493 100.69500965319384 H 0.0 **** 0.06
28789 H 7.973721825141787 33.016422724626096 99.1131354207464 H 0.0 **** 0.06
28790 H 6.439253114548141 32.55300631248912 99.88610400908277 H 0.0 **** 0.06
28791 C 70.83609788602581 62.30137725445318 6.070947025785671 C 0.0 **** -0.24
28792 H 71.2175869120353 61.79993174240277 6.960615005105751 H 0.0 **** 0.06
28793 H 71.63993649320349 62.866361567716204 5.5994655705771095 H 0.0 **** 0.06
28794 H 70.0313354620647 62.981272303429 6.353808897482622 H 0.0 **** 0.06
28795 H 70.45390336498946 61.55839792045277 5.370965865795654 H 0.0 **** 0.06
28796 C 71.22571300578448 25.102705848282895 36.04919174782168 C 0.0 **** -0.24
28797 H 70.46475129691152 25.547345906147513 35.40818937700706 H 0.0 **** 0.06
28798 H 70.74985353477877 24.662182743682983 36.92473881556984 H 0.0 **** 0.06
28799 H 71.92850991394627 25.873680942632646 36.36562894513861 H 0.0 **** 0.06
28800 H 71.75970619265337 24.32928787516908 35.49642187715935 H 0.0 **** 0.06
28801 C 28.002370316989925 76.78265068643714 67.53103447467757 C 0.0 **** -0.24
28802 H 26.981662309048318 76.4697022895507 67.31194085551272 H 0.0 **** 0.06
28803 H 28.604020561454547 75.90853868641227 67.78556919613325 H 0.0 **** 0.06
28804 H 27.99716781879377 77.47770579016651 68.37053426234266 H 0.0 **** 0.06
28805 H 28.428076528331673 77.27370712750496 66.65599827000102 H 0.0 **** 0.06
28806 C 91.24887760873978 107.59814551155773 38.7540007819467 C 0.0 **** -0.24
28807 H 90.63034082365968 108.3802172595718 39.194990158706105 H 0.0 **** 0.06
28808 H 90.68560027870919 106.66474616128758 38.720594777205235 H 0.0 **** 0.06
28809 H 92.14595471962082 107.46018339350047 39.35673009059275 H 0.0 **** 0.06
28810 H 91.53195430688172 107.8883092507904 37.74211335496247 H 0.0 **** 0.06
28811 C 6.48886564276583 41.48974156326937 5.240064965990371 C 0.0 **** -0.24
28812 H 6.793058625696418 41.61507447481173 4.201164668744923 H 0.0 **** 0.06
28813 H 6.126185127246444 42.440860676415966 5.630114779819564 H 0.0 **** 0.06
28814 H 7.342347318785286 41.15631208108767 5.830474470854369 H 0.0 **** 0.06
28815 H 5.694705527836973 40.744915210701684 5.298280334355013 H 0.0 **** 0.06
28816 C 70.20602110013243 44.61668015581648 95.01255141989847 C 0.0 **** -0.24
28817 H 69.87756140896084 45.206004891265934 94.1568335236012 H 0.0 **** 0.06
28818 H 70.54079913838413 45.28475505518895 95.80613201892024 H 0.0 **** 0.06
28819 H 71.02875879288271 43.96728924932887 94.71252018936494 H 0.0 **** 0.06
28820 H 69.37696506030207 44.00867142748234 95.37471994770752 H 0.0 **** 0.06
28821 C 8.035882144470023 108.17902103024389 113.22681130183716 C 0.0 **** -0.24
28822 H 7.390790208209921 107.30099642402561 113.23460213076513 H 0.0 **** 0.06
28823 H 7.560348992647505 108.9736275256169 112.65245664836195 H 0.0 **** 0.06
28824 H 8.992353510173686 107.92289532871658 112.7700085220438 H 0.0 **** 0.06
28825 H 8.201304674651098 108.51798257800777 114.24995160592621 H 0.0 **** 0.06
28826 C 32.07304370628649 99.29132612791938 53.469493308694254 C 0.0 **** -0.24
28827 H 32.93819430050152 98.71557062413106 53.801369394974586 H 0.0 **** 0.06
28828 H 31.278067738169007 99.21033384831759 54.210749016508686 H 0.0 **** 0.06
28829 H 31.721442683173088 98.90002889284474 52.514622224316014 H 0.0 **** 0.06
28830 H 32.356017123373924 100.33717398619748 53.35256666907978 H 0.0 **** 0.06
28831 C 85.5984511083731 67.58331904462932 91.55541749195135 C 0.0 **** -0.24
28832 H 86.6351071338504 67.82579107997924 91.78976804501164 H 0.0 **** 0.06
28833 H 84.94597661030798 68.36799199112386 91.94001733436127 H 0.0 **** 0.06
28834 H 85.33426280671381 66.63149253834024 92.01762035696754 H 0.0 **** 0.06
28835 H 85.47857980636076 67.50751361510834 90.47512914128427 H 0.0 **** 0.06
28836 C 8.293111851366206 91.51077279821746 7.980963873415888 C 0.0 **** -0.24
28837 H 8.181807322770624 92.07332602337274 7.054492779767216 H 0.0 **** 0.06
28838 H 7.631868881445442 91.9271813932904 8.741242913440857 H 0.0 **** 0.06
28839 H 9.326230127379915 91.5747269539313 8.323484092524211 H 0.0 **** 0.06
28840 H 8.03268622485146 90.46646396515828 7.805655048855215 H 0.0 **** 0.06
28841 C 51.47012488505561 90.50072194517506 51.027334567914906 C 0.0 **** -0.24
28842 H 50.83029692815785 90.21309477438368 51.86119686252033 H 0.0 **** 0.06
28843 H 50.97508705146642 91.27505695774877 50.43986414398705 H 0.0 **** 0.06
28844 H 51.65772801438132 89.63120225997332 50.39737095564319 H 0.0 **** 0.06
28845 H 52.41579716784122 90.88290819886916 51.40946421835084 H 0.0 **** 0.06
28846 C 85.32879008718993 20.254232963828656 82.4532433856001 C 0.0 **** -0.24
28847 H 85.39921454825452 21.23152834908359 82.93190062985869 H 0.0 **** 0.06
28848 H 86.21757086140138 20.08229652099095 81.84677729674567 H 0.0 **** 0.06
28849 H 84.44291308868361 20.224891368150736 81.81798229949916 H 0.0 **** 0.06
28850 H 85.2537096052659 19.480593579946685 83.21744270336603 H 0.0 **** 0.06
28851 C 72.74800159861189 113.34892703220804 60.79789006762803 C 0.0 **** -0.24
28852 H 73.5137703089921 112.76735006281675 61.310181020080734 H 0.0 **** 0.06
28853 H 71.8813678139719 112.71702338288463 60.603526407608484 H 0.0 **** 0.06
28854 H 73.14569198932514 113.72197475224468 59.85391266362575 H 0.0 **** 0.06
28855 H 72.45156080024418 114.19070409434275 61.42415345732516 H 0.0 **** 0.06
28856 C 70.51615785007164 53.6812762231237 96.39411055555561 C 0.0 **** -0.24
28857 H 71.26837657640124 53.35981068640479 97.11523573861001 H 0.0 **** 0.06
28858 H 70.73865914630517 53.24779994918942 95.41923054006881 H 0.0 **** 0.06
28859 H 70.52529117551273 54.768879382845874 96.32014070996286 H 0.0 **** 0.06
28860 H 69.53185199807947 53.347670470604946 96.72404966208825 H 0.0 **** 0.06
28861 C 16.23572832998359 70.75866011047395 111.66491650033299 C 0.0 **** -0.24
28862 H 16.198875603375242 70.1653135052182 112.57901130046324 H 0.0 **** 0.06
28863 H 15.92751887825785 70.14271898380701 110.81942309531911 H 0.0 **** 0.06
28864 H 17.25272342278833 71.11466708448376 111.50346209358399 H 0.0 **** 0.06
28865 H 15.562080962222264 71.61106804987077 111.75928581968566 H 0.0 **** 0.06
28866 C 94.2757982203419 98.71368602717234 18.257919320852523 C 0.0 **** -0.24
28867 H 94.87149732369741 98.56065289815709 17.35773098558414 H 0.0 **** 0.06
28868 H 94.3323789796521 97.8248459573663 18.886683621142424 H 0.0 **** 0.06
28869 H 93.23777875729755 98.89772722820786 17.979759229272645 H 0.0 **** 0.06
28870 H 94.66220938672868 99.57276189337693 18.80745977167487 H 0.0 **** 0.06
28871 C 8.373944300418287 22.31313288939498 86.37622918175211 C 0.0 **** -0.24
28872 H 7.981363865253115 22.263079629315115 87.39274477397694 H 0.0 **** 0.06
28873 H 9.09439234169696 23.12775017150301 86.30472496753328 H 0.0 **** 0.06
28874 H 7.554298078084116 22.489853923412767 85.67899365546808 H 0.0 **** 0.06
28875 H 8.86257550819758 21.370726827485242 86.13013796226659 H 0.0 **** 0.06
28876 C 109.28584276823148 16.669068373822455 49.819141906557036 C 0.0 **** -0.24
28877 H 109.88288104366518 16.74219282288061 50.72754799278181 H 0.0 **** 0.06
28878 H 109.80956556970898 16.052853936616145 49.088821619880946 H 0.0 **** 0.06
28879 H 109.12840520743083 17.666105368614836 49.40703360789243 H 0.0 **** 0.06
28880 H 108.32241703006127 16.217350852379752 50.053025700305426 H 0.0 **** 0.06
28881 C 32.91785283121226 81.25928822998398 33.99754095864415 C 0.0 **** -0.24
28882 H 31.87959794290203 81.56124312745936 34.12939126846109 H 0.0 **** 0.06
28883 H 33.45932951645259 82.04141123513463 33.46420687297933 H 0.0 **** 0.06
28884 H 32.95723973620116 80.33349795030358 33.422436903706625 H 0.0 **** 0.06
28885 H 33.37631810635908 81.09965098152549 34.973116209323706 H 0.0 **** 0.06
28886 C 44.473006635379875 14.67834319130947 8.915605637629888 C 0.0 **** -0.24
28887 H 43.743888972043436 14.665635328282075 8.104353138109225 H 0.0 **** 0.06
28888 H 43.96057063516234 14.856674169220828 9.860919327279628 H 0.0 **** 0.06
28889 H 45.19823309449791 15.472245925049325 8.739413829273996 H 0.0 **** 0.06
28890 H 44.9875477988636 13.718143986724755 8.955648884798666 H 0.0 **** 0.06
28891 C 82.5720109853387 70.89398844643097 113.63906709879177 C 0.0 **** -0.24
28892 H 83.58754939890343 70.67815869533158 113.30637828555905 H 0.0 **** 0.06
28893 H 82.56624766284381 71.03540095538622 114.72014429033108 H 0.0 **** 0.06
28894 H 81.919913527843 70.06037591759357 113.37841670924014 H 0.0 **** 0.06
28895 H 82.21423337657836 71.80065495082843 113.1516919134275 H 0.0 **** 0.06
28896 C 96.05639232027198 93.55378169982788 44.858259573653385 C 0.0 **** -0.24
28897 H 95.03274023667814 93.2478569193793 44.64182015666762 H 0.0 **** 0.06
28898 H 96.0977233896786 94.00801653556167 45.848863984141786 H 0.0 **** 0.06
28899 H 96.38415549577485 94.27662681398087 44.11197428027961 H 0.0 **** 0.06
28900 H 96.70855928497582 92.68056001427968 44.83049742504224 H 0.0 **** 0.06
28901 C 113.41838853740558 90.02406586881813 44.207849585733584 C 0.0 **** -0.24
28902 H 113.8753962104982 89.14612297301298 44.666422300355094 H 0.0 **** 0.06
28903 H 112.33512608591028 89.96526480571589 44.31330318435812 H 0.0 **** 0.06
28904 H 113.68002874725381 90.05896692602815 43.15052188936599 H 0.0 **** 0.06
28905 H 113.78336367441379 90.92293405580227 44.703983292681926 H 0.0 **** 0.06
28906 C 87.30731357029379 36.181770884555014 50.18532354870024 C 0.0 **** -0.24
28907 H 88.34629926832997 35.97122559479929 49.93228213961953 H 0.0 **** 0.06
28908 H 86.81963942995014 36.67009159621587 49.340837632343835 H 0.0 **** 0.06
28909 H 87.27018665991704 36.83731414856074 51.054886163532274 H 0.0 **** 0.06
28910 H 86.79245724400437 35.2479674733924 50.41272794926141 H 0.0 **** 0.06
28911 C 5.380514527257631 0.6692525851505309 1.7322676290420844 C 0.0 **** -0.24
28912 H 5.751836536412526 0.5825394603122049 0.7116754947369657 H 0.0 **** 0.06
28913 H 5.644981504924758 -0.22834885432449425 2.2928945549253257 H 0.0 **** 0.06
28914 H 4.296666541563084 0.7813620764767109 1.7169855651452224 H 0.0 **** 0.06
28915 H 5.829335574778227 1.5408584905391933 2.2089503301198476 H 0.0 **** 0.06
28916 C 27.686148324334603 14.124749189384062 66.02924558888515 C 0.0 **** -0.24
28917 H 27.419526332616435 14.709359849141066 65.14818105122924 H 0.0 **** 0.06
28918 H 26.885988855881294 13.418309264653601 66.2513155277826 H 0.0 **** 0.06
28919 H 27.827997804455194 14.792502221130746 66.87939394167506 H 0.0 **** 0.06
28920 H 28.61032342966992 13.57952382605319 65.83712256171668 H 0.0 **** 0.06
28921 C 10.6863726813028 4.35179041670763 52.43413717631225 C 0.0 **** -0.24
28922 H 10.293890709349 4.307093870954162 51.4187088760205 H 0.0 **** 0.06
28923 H 10.381677267639503 3.4586853973834906 52.98089102903444 H 0.0 **** 0.06
28924 H 10.294602606247736 5.2364449631377 52.935376706140204 H 0.0 **** 0.06
28925 H 11.774663129523589 4.40410719629817 52.400634461469195 H 0.0 **** 0.06
28926 C 71.8725616761395 80.03086616338197 106.16121026370152 C 0.0 **** -0.24
28927 H 71.02029590744169 80.29841308755203 106.78685181128316 H 0.0 **** 0.06
28928 H 72.45982430933387 80.92418120617498 105.94542684868432 H 0.0 **** 0.06
28929 H 71.51368782620867 79.59680140411623 105.22728521805257 H 0.0 **** 0.06
28930 H 72.49294911225968 79.30406533225283 106.6839266760374 H 0.0 **** 0.06
28931 C 42.72088606957422 55.411566195781255 13.978434511524888 C 0.0 **** -0.24
28932 H 43.15179883085921 54.414311111814634 13.891491777591973 H 0.0 **** 0.06
28933 H 42.402430557317615 55.58113116185378 15.007239355835992 H 0.0 **** 0.06
28934 H 41.86148783506292 55.49548350137869 13.313532183249706 H 0.0 **** 0.06
28935 H 43.46811463135165 56.155090802021725 13.702399798169097 H 0.0 **** 0.06
28936 C 72.86720393042597 97.32498407924459 83.42028743883148 C 0.0 **** -0.24
28937 H 72.90441166766826 98.38354952377324 83.67910282024079 H 0.0 **** 0.06
28938 H 73.3648097286862 97.1671162491997 82.46260644822988 H 0.0 **** 0.06
28939 H 71.82813944862869 97.00510069539433 83.34730698925793 H 0.0 **** 0.06
28940 H 73.37307422723384 96.74439750356169 84.19270450794284 H 0.0 **** 0.06
28941 C 41.13247048754644 117.3977407314258 27.21982424532436 C 0.0 **** -0.24
28942 H 41.219588352300015 117.73854101446929 28.250528420067923 H 0.0 **** 0.06
28943 H 40.7343567004112 116.38311887374921 27.204544438193267 H 0.0 **** 0.06
28944 H 42.115608385385855 117.41045488873839 26.74916640639617 H 0.0 **** 0.06
28945 H 40.46029740323014 118.06046459639212 26.67351291178528 H 0.0 **** 0.06
28946 C 65.62552857526612 100.05136598184569 2.5285678094771864 C 0.0 **** -0.24
28947 H 65.80743468231577 99.87870601943087 3.5893567984103374 H 0.0 **** 0.06
28948 H 64.60131390334521 99.7656611221723 2.285759869301069 H 0.0 **** 0.06
28949 H 66.31885368069999 99.45250378058645 1.9391360042494359 H 0.0 **** 0.06
28950 H 65.77248183013575 101.10654233262875 2.3013122417305727 H 0.0 **** 0.06
28951 C 63.56490431239035 32.52443365135464 115.62566576378651 C 0.0 **** -0.24
28952 H 63.094445038812104 32.7607540215449 116.58067800959489 H 0.0 **** 0.06
28953 H 63.62819029936427 31.44211081883006 115.51014183306285 H 0.0 **** 0.06
28954 H 64.56685315603619 32.9521819872343 115.598162723522 H 0.0 **** 0.06
28955 H 62.968220963339185 32.942188290152615 114.81513348348733 H 0.0 **** 0.06
28956 C 91.17727912941768 62.305129593162576 87.29754666499377 C 0.0 **** -0.24
28957 H 90.68389863811512 63.25917804687964 87.48068255299268 H 0.0 **** 0.06
28958 H 92.2531479045368 62.420823232513044 87.43338112902074 H 0.0 **** 0.06
28959 H 90.97257198493506 61.98124914569843 86.27661078592035 H 0.0 **** 0.06
28960 H 90.799230625586 61.55983220729689 87.99736500318977 H 0.0 **** 0.06
28961 C 111.51459770028401 13.692250148994361 20.949248735456592 C 0.0 **** -0.24
28962 H 111.82374532454946 14.496422374227535 21.61737550513581 H 0.0 **** 0.06
28963 H 112.3464460608759 13.003859680922375 20.799600995185756 H 0.0 **** 0.06
28964 H 111.21398286383999 14.11268138875144 19.989650979310085 H 0.0 **** 0.06
28965 H 110.67353639041934 13.156509495082872 21.389806809858015 H 0.0 **** 0.06
28966 C 96.08084064011041 27.216747531275786 66.51171982782469 C 0.0 **** -0.24
28967 H 95.97417982297733 27.094302893269486 65.43398222648082 H 0.0 **** 0.06
28968 H 95.66980304883194 26.34346631104077 67.01944677384827 H 0.0 **** 0.06
28969 H 95.54271583385989 28.109920006642966 66.83096621977467 H 0.0 **** 0.06
28970 H 97.13693093735878 27.32068879687472 66.76253474245755 H 0.0 **** 0.06
28971 C 2.6895892706413633 91.35221718290995 93.75756126643915 C 0.0 **** -0.24
28972 H 1.983997448497746 90.52551341944323 93.8463627336692 H 0.0 **** 0.06
28973 H 3.610090556318596 91.10171198292491 94.2842690237286 H 0.0 **** 0.06
28974 H 2.253546696301953 92.25011324466186 94.19398196874403 H 0.0 **** 0.06
28975 H 2.9091945967277297 91.53031609522634 92.70415064552873 H 0.0 **** 0.06
28976 C 14.27274169374408 83.63548628499595 57.56320965264996 C 0.0 **** -0.24
28977 H 14.819564819503142 82.94888247271857 56.91775618281173 H 0.0 **** 0.06
28978 H 14.623617996194838 83.52650612425839 58.58923191914067 H 0.0 **** 0.06
28979 H 13.207746769844789 83.4079541786229 57.51687906270445 H 0.0 **** 0.06
28980 H 14.439666449754071 84.65906446614724 57.228165795517214 H 0.0 **** 0.06
28981 C 62.99861192817209 42.617076417663384 37.398880776765395 C 0.0 **** -0.24
28982 H 62.12148667614948 42.20243719058385 36.90252894011428 H 0.0 **** 0.06
28983 H 63.57561443055783 41.81071799309865 37.851554798644656 H 0.0 **** 0.06
28984 H 62.68183969754879 43.316661087774776 38.1720820333984 H 0.0 **** 0.06
28985 H 63.616634432075564 43.1396165002493 36.667789334125246 H 0.0 **** 0.06
28986 C 110.7745941570282 33.11697180797967 11.625818389970874 C 0.0 **** -0.24
28987 H 111.4592226912704 33.48865879151086 12.387095623652613 H 0.0 **** 0.06
28988 H 110.65476983549156 32.03981702573097 11.739793156758594 H 0.0 **** 0.06
28989 H 111.17735475553629 33.33588203638831 10.636603643094588 H 0.0 **** 0.06
28990 H 109.80586600681386 33.60423661087262 11.739398276667004 H 0.0 **** 0.06
28991 C 118.65066204816117 43.18413704966267 8.764516708208646 C 0.0 **** -0.24
28992 H 119.73364367991479 43.0669030138861 8.80403301385752 H 0.0 **** 0.06
28993 H 118.31222803849269 43.09459545853538 7.731734370186018 H 0.0 **** 0.06
28994 H 118.37700343312622 44.16469702113255 9.153041648537112 H 0.0 **** 0.06
28995 H 118.17914661693058 42.40962376455632 9.369534019357047 H 0.0 **** 0.06
28996 C 1.867393572772528 35.61229995748329 57.36420742519294 C 0.0 **** -0.24
28997 H 1.0080924548194048 34.96397030451802 57.195940503351245 H 0.0 **** 0.06
28998 H 2.1125001235349714 35.62076627038361 58.4263640438735 H 0.0 **** 0.06
28999 H 1.6281194243167363 36.62378530532631 57.03751065040806 H 0.0 **** 0.06
29000 H 2.720397623603475 35.23981376392328 56.79720770795719 H 0.0 **** 0.06
29001 C 114.91326311576344 16.51975120249628 16.697871724967996 C 0.0 **** -0.24
29002 H 114.99991829379081 16.323049295506365 15.62936351353855 H 0.0 **** 0.06
29003 H 113.8598006156119 16.553099391387008 16.9767610610771 H 0.0 **** 0.06
29004 H 115.38155316069773 17.476511585968495 16.93003029109809 H 0.0 **** 0.06
29005 H 115.41235128366299 15.727484619016877 17.254720140221337 H 0.0 **** 0.06
29006 C 110.14464218151943 39.98365224212051 9.102310151436566 C 0.0 **** -0.24
29007 H 110.33162693298237 38.98134646194825 8.71869274392996 H 0.0 **** 0.06
29008 H 111.04752047904074 40.586279474265325 8.99899596052217 H 0.0 **** 0.06
29009 H 109.86647596304448 39.92375833339884 10.155255988097796 H 0.0 **** 0.06
29010 H 109.33332814626857 40.44365382736777 8.53924037300213 H 0.0 **** 0.06
29011 C 52.080816579078515 83.14590801647651 82.4802503814906 C 0.0 **** -0.24
29012 H 52.15515022645805 82.60434752188303 83.42224995474339 H 0.0 **** 0.06
29013 H 51.49391189893855 82.56163312564502 81.77062203230867 H 0.0 **** 0.06
29014 H 53.07927835461797 83.31148343589248 82.07649502364137 H 0.0 **** 0.06
29015 H 51.593592298369 84.10606470027722 82.65117503024197 H 0.0 **** 0.06
29016 C 109.25742961753667 4.8895929362211294 19.417106291343345 C 0.0 **** -0.24
29017 H 109.1861916988353 5.185749122067502 20.46352887475453 H 0.0 **** 0.06
29018 H 110.05105092547612 4.15060146287253 19.300931985130376 H 0.0 **** 0.06
29019 H 109.48198025060515 5.764164267990438 18.806486465993885 H 0.0 **** 0.06
29020 H 108.30852615895205 4.457749302660053 19.096424256046703 H 0.0 **** 0.06
29021 C 18.24511889383504 84.39819652605621 76.72467983600046 C 0.0 **** -0.24
29022 H 18.04920327084929 84.52677148777428 77.78927935126069 H 0.0 **** 0.06
29023 H 17.36070943314141 84.68412729374322 76.15460780639609 H 0.0 **** 0.06
29024 H 18.48471647789205 83.35404949470512 76.52337025317479 H 0.0 **** 0.06
29025 H 19.08599337156585 85.02692669323534 76.4318470168372 H 0.0 **** 0.06
29026 C 91.96874957024096 28.81264355607098 96.56629181584611 C 0.0 **** -0.24
29027 H 91.36239361199037 28.22946252420516 95.87340229276256 H 0.0 **** 0.06
29028 H 92.03889508165722 29.840134530674305 96.21117860128498 H 0.0 **** 0.06
29029 H 92.9672169815021 28.37974926632876 96.62692948118448 H 0.0 **** 0.06
29030 H 91.5060507849536 28.799283467189042 97.55381244406729 H 0.0 **** 0.06
29031 C 78.37997804012244 25.356456832664776 55.30204981850798 C 0.0 **** -0.24
29032 H 78.19986005479194 25.356905138548314 56.37629736114988 H 0.0 **** 0.06
29033 H 77.48606382264535 25.704505574959 54.78294760620011 H 0.0 **** 0.06
29034 H 78.62004093666414 24.344954203072973 54.97480863720807 H 0.0 **** 0.06
29035 H 79.21441700732413 26.019422213822963 55.07326370513047 H 0.0 **** 0.06
29036 C 108.1849838630911 84.73498351302123 90.89952163417797 C 0.0 **** -0.24
29037 H 108.7883948411959 83.83916552674742 90.75506105553785 H 0.0 **** 0.06
29038 H 107.15430454555013 84.52883745811141 90.61026130326263 H 0.0 **** 0.06
29039 H 108.58060585226812 85.54242967263616 90.2830214014657 H 0.0 **** 0.06
29040 H 108.21623209120008 85.02893794868271 91.94815400234666 H 0.0 **** 0.06
29041 C 45.42469096681623 97.67470375889206 89.77308723154431 C 0.0 **** -0.24
29042 H 45.36694024896195 97.51363306580095 88.69608364714057 H 0.0 **** 0.06
29043 H 44.41730714754249 97.71629296977818 90.18861558509857 H 0.0 **** 0.06
29044 H 45.94068308689509 98.61363982407033 89.97294655356782 H 0.0 **** 0.06
29045 H 45.97428349750032 96.85303434041384 90.23375854905498 H 0.0 **** 0.06
29046 C 104.85323636528284 101.92045399222695 65.01344934943046 C 0.0 **** -0.24
29047 H 105.39091840543406 101.5409764743869 64.14398430510713 H 0.0 **** 0.06
29048 H 103.77929659290407 101.83934688585944 64.83944735305604 H 0.0 **** 0.06
29049 H 105.1174935727492 102.96520837472767 65.17457331116915 H 0.0 **** 0.06
29050 H 105.12488646058128 101.33686008474365 65.89211188293339 H 0.0 **** 0.06
29051 C 59.73194590872873 102.64424327059209 26.815206951988955 C 0.0 **** -0.24
29052 H 58.708672180020926 102.97189618339235 26.629847692313618 H 0.0 **** 0.06
29053 H 59.73586371296858 101.57873463004617 27.043289201695643 H 0.0 **** 0.06
29054 H 60.142712032211136 103.19846622066751 27.658853593098684 H 0.0 **** 0.06
29055 H 60.337634731837 102.82913447424338 25.928873055839887 H 0.0 **** 0.06
29056 C 59.32177817481056 90.75200660920828 114.19605146228562 C 0.0 **** -0.24
29057 H 60.39670530156883 90.87701394026985 114.32988890683791 H 0.0 **** 0.06
29058 H 58.80181157062623 91.11163700551612 115.08384212696187 H 0.0 **** 0.06
29059 H 59.09460824772799 89.69597053409879 114.04489163571358 H 0.0 **** 0.06
29060 H 58.99485722929131 91.32152892433749 113.32689640539755 H 0.0 **** 0.06
29061 C 23.506771547993765 86.53975471636198 31.949461308980176 C 0.0 **** -0.24
29062 H 22.796784798115937 87.28634130712544 31.59338427216551 H 0.0 **** 0.06
29063 H 24.138948719856288 86.21717734893872 31.12195997622473 H 0.0 **** 0.06
29064 H 22.96453252896852 85.68269358043892 32.347960471299416 H 0.0 **** 0.06
29065 H 24.127719728676922 86.97366815701656 32.733870713447345 H 0.0 **** 0.06
29066 C 88.66325066235797 15.923773706421514 67.10960674855696 C 0.0 **** -0.24
29067 H 88.95869676418769 14.876547646286923 67.17851817902033 H 0.0 **** 0.06
29068 H 89.54703893100461 16.55691485730941 67.20130342534213 H 0.0 **** 0.06
29069 H 87.96346689970872 16.15728501748623 67.91198927506974 H 0.0 **** 0.06
29070 H 88.18551232005586 16.10339132995756 66.1470091713847 H 0.0 **** 0.06
29071 C 25.209981506521018 21.558317227644828 55.67230160574789 C 0.0 **** -0.24
29072 H 25.43023953169245 22.58893073269067 55.95415953631118 H 0.0 **** 0.06
29073 H 24.13779620631749 21.380197771868914 55.76114289697239 H 0.0 **** 0.06
29074 H 25.748137675194187 20.878370719826492 56.332931055247286 H 0.0 **** 0.06
29075 H 25.522824335108425 21.38919614551246 54.642155514998706 H 0.0 **** 0.06
29076 C 91.38850338946179 9.583951269631257 59.12683956024449 C 0.0 **** -0.24
29077 H 92.38698428924462 9.95718304312021 58.89839804542618 H 0.0 **** 0.06
29078 H 90.93307451415544 9.185490963792233 58.220139772858886 H 0.0 **** 0.06
29079 H 90.77546626688599 10.399013471220371 59.513146093376804 H 0.0 **** 0.06
29080 H 91.45795081050662 8.79621310141414 59.87624007806261 H 0.0 **** 0.06
29081 C 93.26186453335234 113.79566167210467 53.69880652660404 C 0.0 **** -0.24
29082 H 94.2877524540815 113.42749680208347 53.712117262007375 H 0.0 **** 0.06
29083 H 92.81531996134004 113.58889851044664 52.725729158726885 H 0.0 **** 0.06
29084 H 93.25978545948865 114.87079715490506 53.879025720074445 H 0.0 **** 0.06
29085 H 92.68577138147796 113.29571428557671 54.47710456052829 H 0.0 **** 0.06
29086 C 2.572331258618611 13.222135909063478 59.79549821580647 C 0.0 **** -0.24
29087 H 2.3360898502564833 12.223241594809767 60.1615059800338 H 0.0 **** 0.06
29088 H 3.475616549943533 13.181537390688202 59.18654006488196 H 0.0 **** 0.06
29089 H 2.734164559631136 13.89004237973181 60.64217026521609 H 0.0 **** 0.06
29090 H 1.7435620563452119 13.593053068742655 59.19251178558563 H 0.0 **** 0.06
29091 C 100.66415940336509 105.42365059449409 54.478701208949275 C 0.0 **** -0.24
29092 H 101.37176002057834 106.24372955159117 54.356294320837634 H 0.0 **** 0.06
29093 H 100.24853926493529 105.1547566876826 53.50699826881561 H 0.0 **** 0.06
29094 H 99.8596273594116 105.73383292689883 55.14526378056152 H 0.0 **** 0.06
29095 H 101.17866951072307 104.56232005661755 54.905170018667405 H 0.0 **** 0.06
29096 C 73.56220975961628 85.2293591848948 29.459206410579043 C 0.0 **** -0.24
29097 H 74.61488291243074 85.4761427389833 29.594182814386926 H 0.0 **** 0.06
29098 H 73.03104012020009 86.10063478611366 29.07563082859599 H 0.0 **** 0.06
29099 H 73.13357053264122 84.93387380525911 30.416994691075814 H 0.0 **** 0.06
29100 H 73.46981970410224 84.40591285363772 28.749899790798793 H 0.0 **** 0.06
29101 C 58.24130800971923 102.18250951154008 73.90423183859289 C 0.0 **** -0.24
29102 H 58.828632820704655 101.89811992544452 73.03098232331556 H 0.0 **** 0.06
29103 H 58.49969176653374 101.53456776992596 74.74161818048282 H 0.0 **** 0.06
29104 H 57.18047764715669 102.07878878293337 73.67720651927766 H 0.0 **** 0.06
29105 H 58.457595688899715 103.21875659974756 74.16436294066094 H 0.0 **** 0.06
29106 C 32.33662910266411 50.34366944164202 111.14754039950273 C 0.0 **** -0.24
29107 H 33.0835547058312 49.76605681749538 110.60235015025884 H 0.0 **** 0.06
29108 H 32.12235897196722 51.265154946066644 110.60441199972246 H 0.0 **** 0.06
29109 H 32.718502410267064 50.58638918988055 112.13898351253759 H 0.0 **** 0.06
29110 H 31.423035700222712 49.75688244334012 111.24412038916613 H 0.0 **** 0.06
29111 C 65.40440957644097 23.763976053741175 24.16460075097143 C 0.0 **** -0.24
29112 H 65.91588462299839 24.42118842336626 23.460929818329333 H 0.0 **** 0.06
29113 H 64.74766981211741 24.35650285506162 24.802772774815907 H 0.0 **** 0.06
29114 H 66.14002601484668 23.24613420992378 24.779163021003853 H 0.0 **** 0.06
29115 H 64.81178224545602 23.032864413062583 23.612672932689236 H 0.0 **** 0.06
29116 C 84.71982598413945 76.05534852939107 22.837401605684107 C 0.0 **** -0.24
29117 H 85.17631033468035 75.87970124728088 23.810925911218618 H 0.0 **** 0.06
29118 H 84.03045185415817 76.89636336786893 22.906095640023665 H 0.0 **** 0.06
29119 H 84.17536275391541 75.16350625762561 22.524456212094037 H 0.0 **** 0.06
29120 H 85.49652830700734 76.280921265481 22.107255070745325 H 0.0 **** 0.06
29121 C 78.8829864019747 53.75691475637046 7.386565271614643 C 0.0 **** -0.24
29122 H 78.73863518975904 53.46439545413534 6.346525967721021 H 0.0 **** 0.06
29123 H 78.58043197161166 54.79621390910876 7.517384603499977 H 0.0 **** 0.06
29124 H 79.9350692536996 53.64824049792992 7.651986085488005 H 0.0 **** 0.06
29125 H 78.27912659114725 53.118311057485016 8.03023610056539 H 0.0 **** 0.06
29126 C 100.70255521770997 38.19793255969743 95.23495135671408 C 0.0 **** -0.24
29127 H 101.54129251883558 37.64414079512025 95.65621370086566 H 0.0 **** 0.06
29128 H 100.25233016198689 37.61733227811774 94.42927938342837 H 0.0 **** 0.06
29129 H 101.05789809877956 39.150843423588654 94.84162331933962 H 0.0 **** 0.06
29130 H 99.96077867351798 38.379981757929265 96.01152403184216 H 0.0 **** 0.06
29131 C 116.30426193627935 105.25881559369452 112.61673004174497 C 0.0 **** -0.24
29132 H 115.74559463332102 105.50654713753408 111.71444490582164 H 0.0 **** 0.06
29133 H 117.36713186477309 105.43025619876732 112.44399830995799 H 0.0 **** 0.06
29134 H 116.14133036923185 104.21105573728568 112.86854572204086 H 0.0 **** 0.06
29135 H 115.96299087779161 105.88740330119089 113.43993122915913 H 0.0 **** 0.06
29136 C 70.54000392718694 31.5370837536354 106.40567521836175 C 0.0 **** -0.24
29137 H 69.73159613882763 32.266440282572816 106.45329296809686 H 0.0 **** 0.06
29138 H 71.13442186737862 31.712086963602886 105.50826180817319 H 0.0 **** 0.06
29139 H 70.12091066167787 30.53157685491462 106.37305222234838 H 0.0 **** 0.06
29140 H 71.17329647728494 31.638518872656903 107.28639876670346 H 0.0 **** 0.06
29141 C 10.583259242731401 76.3080795612708 102.18022012607139 C 0.0 **** -0.24
29142 H 10.316756837634898 75.8706866990126 103.14251297934624 H 0.0 **** 0.06
29143 H 11.535701880719529 75.89745930582441 101.84569274193217 H 0.0 **** 0.06
29144 H 10.67104592598156 77.389434802565 102.28536720854774 H 0.0 **** 0.06
29145 H 9.808800948094358 76.07497481163216 101.44963331959866 H 0.0 **** 0.06
29146 C 38.511488827255526 37.35102849715088 117.33262162962426 C 0.0 **** -0.24
29147 H 39.043195018532664 37.245075551798294 118.27796074313677 H 0.0 **** 0.06
29148 H 38.69386529961444 38.34511684276467 116.92304768231169 H 0.0 **** 0.06
29149 H 37.442037716646695 37.21849371571925 117.50070645148385 H 0.0 **** 0.06
29150 H 38.865227570363025 36.59690015483798 116.62985645423073 H 0.0 **** 0.06
29151 C 41.502324473120325 0.8810537111357917 100.20289425862072 C 0.0 **** -0.24
29152 H 42.407572080366435 0.2787502744536141 100.28110502522838 H 0.0 **** 0.06
29153 H 40.7881403677419 0.5625950485253384 100.96334663074398 H 0.0 **** 0.06
29154 H 41.062533577356476 0.7511634603081347 99.2142714618951 H 0.0 **** 0.06
29155 H 41.751777113543426 1.9312459645336446 100.35514796976008 H 0.0 **** 0.06
29156 C 53.46615811212646 19.16981387745011 57.805472309944484 C 0.0 **** -0.24
29157 H 53.597751530346414 20.128475359149178 57.30556452152951 H 0.0 **** 0.06
29158 H 52.93088733996955 18.48602775647325 57.145013803921024 H 0.0 **** 0.06
29159 H 52.893091879498506 19.313040595739494 58.721488010476726 H 0.0 **** 0.06
29160 H 54.44206832116712 18.749494951101212 58.049197267266884 H 0.0 **** 0.06
29161 C 60.37626907004586 114.7372629928648 12.903356577471214 C 0.0 **** -0.24
29162 H 61.25300730821605 114.89011503092603 13.531705057533514 H 0.0 **** 0.06
29163 H 60.19271358770499 115.63590108897358 12.312279024598496 H 0.0 **** 0.06
29164 H 59.51004977684445 114.5324110780699 13.53115535133739 H 0.0 **** 0.06
29165 H 60.55035512451888 113.8928607738437 12.236584130604484 H 0.0 **** 0.06
29166 C 39.277429060067334 99.08775106057607 83.29160751899224 C 0.0 **** -0.24
29167 H 38.40742267057546 99.58454215897666 83.72025891357237 H 0.0 **** 0.06
29168 H 39.62791122583354 98.31568100813885 83.97743091024887 H 0.0 **** 0.06
29169 H 40.07075198113583 99.8171200499109 83.12922782074847 H 0.0 **** 0.06
29170 H 39.00276445592115 98.63142534833915 82.34001473149172 H 0.0 **** 0.06
29171 C 6.5846446582444 104.95902367250915 118.63276699408672 C 0.0 **** -0.24
29172 H 7.587497447539704 105.32761177503039 118.84968332223846 H 0.0 **** 0.06
29173 H 6.043395781084797 104.80818921848646 119.5666503777486 H 0.0 **** 0.06
29174 H 6.654301750784185 104.01295737184137 118.09581260130551 H 0.0 **** 0.06
29175 H 6.0554970299261015 105.68754661623228 118.01822188177968 H 0.0 **** 0.06
29176 C 69.35367963504919 8.635898802884082 77.46739698907302 C 0.0 **** -0.24
29177 H 70.3188069532165 8.763972014282874 77.95755011076753 H 0.0 **** 0.06
29178 H 68.96269261676477 9.610807606884283 77.17467084131604 H 0.0 **** 0.06
29179 H 68.65730563879552 8.156352873278617 78.1554867677684 H 0.0 **** 0.06
29180 H 69.47725101941029 8.0125576338935 76.58143112759234 H 0.0 **** 0.06
29181 C 26.45302856044367 98.42081679233212 76.78399113562926 C 0.0 **** -0.24
29182 H 25.845275753112645 97.54912078039655 77.02691738921303 H 0.0 **** 0.06
29183 H 26.0001107579659 98.95819704555271 75.95140514076519 H 0.0 **** 0.06
29184 H 27.45661707500335 98.09765578153059 76.50632828269386 H 0.0 **** 0.06
29185 H 26.509087985258972 99.0771861211594 77.65296539963464 H 0.0 **** 0.06
29186 C 4.749234270730948 58.86408015952707 98.27856426715371 C 0.0 **** -0.24
29187 H 4.864206500305988 58.8313269130527 97.19549264644436 H 0.0 **** 0.06
29188 H 4.492504049145067 57.87010103895987 98.64733896213471 H 0.0 **** 0.06
29189 H 3.9563573545665065 59.56409859772874 98.538994406701 H 0.0 **** 0.06
29190 H 5.684696300315453 59.18976670994555 98.73294142660023 H 0.0 **** 0.06
29191 C 35.28267535226466 50.32255948023109 76.07506299257892 C 0.0 **** -0.24
29192 H 35.65120884273401 50.540602257951264 77.07818365881047 H 0.0 **** 0.06
29193 H 34.81569392346444 49.33739466452957 76.06593964123306 H 0.0 **** 0.06
29194 H 36.11526890181881 50.33752323065521 75.37189685038695 H 0.0 **** 0.06
29195 H 34.549652635068696 51.07557992861092 75.78668054530601 H 0.0 **** 0.06
29196 C 32.51037431407309 118.3147457590818 50.28300338707794 C 0.0 **** -0.24
29197 H 32.20992649076567 119.13437114246474 49.63028682907907 H 0.0 **** 0.06
29198 H 31.841068637580236 117.46702901956398 50.13373565650113 H 0.0 **** 0.06
29199 H 32.457215936466525 118.6410020442203 51.32197866578758 H 0.0 **** 0.06
29200 H 33.53199008477185 118.01822031290182 50.0468076932807 H 0.0 **** 0.06
29201 C 62.502027107689514 27.416560252914223 41.7281485165894 C 0.0 **** -0.24
29202 H 62.4079585657185 27.491513075240277 42.81168521528696 H 0.0 **** 0.06
29203 H 62.64352704837478 26.372758585719055 41.447653556665756 H 0.0 **** 0.06
29204 H 63.35949136964007 28.002173002680195 41.39655189655596 H 0.0 **** 0.06
29205 H 61.59657901193032 27.80009251609158 41.25860269618542 H 0.0 **** 0.06
29206 C 86.21199131862437 16.01572765350606 82.5354765639191 C 0.0 **** -0.24
29207 H 86.34449361618638 15.410302472606894 83.43125665297316 H 0.0 **** 0.06
29208 H 85.81604364316235 16.993299629022516 82.81301956816262 H 0.0 **** 0.06
29209 H 85.51410811345593 15.519393199476742 81.86101253824802 H 0.0 **** 0.06
29210 H 87.17276246837443 16.141150045404437 82.0362115148892 H 0.0 **** 0.06
29211 C 42.87370841297511 56.16427480142337 32.202992048108435 C 0.0 **** -0.24
29212 H 41.997533481808084 56.278889319577964 32.84256743480939 H 0.0 **** 0.06
29213 H 43.27982709485636 55.160254463316896 32.32076417271605 H 0.0 **** 0.06
29214 H 43.627927538021595 56.898350556437116 32.486159586038944 H 0.0 **** 0.06
29215 H 42.58674916334197 56.321042403941355 31.16281517701239 H 0.0 **** 0.06
29216 C 101.12046627858092 28.60498714308423 55.45223493621785 C 0.0 **** -0.24
29217 H 100.656208889733 28.765695834180363 54.47987220067171 H 0.0 **** 0.06
29218 H 101.00574261276955 27.560517708777127 55.74130521040303 H 0.0 **** 0.06
29219 H 100.63932208041146 29.242805621937748 56.194462989410965 H 0.0 **** 0.06
29220 H 102.18086870627016 28.851889670782526 55.39333291477698 H 0.0 **** 0.06
29221 C 20.887348722117707 35.76423847315024 55.67668731018966 C 0.0 **** -0.24
29222 H 21.65445771898075 36.34229423132507 55.16034443794504 H 0.0 **** 0.06
29223 H 21.009609156223462 35.880046924091246 56.753456245431124 H 0.0 **** 0.06
29224 H 20.98502416221362 34.712506463604456 55.41012628963702 H 0.0 **** 0.06
29225 H 19.90151099538062 36.12451572311224 55.38116759523774 H 0.0 **** 0.06
29226 C 110.96692284596332 106.49991968136933 88.28068867851772 C 0.0 **** -0.24
29227 H 111.27946033472294 107.40823252033331 88.79660215901902 H 0.0 **** 0.06
29228 H 111.5773428900794 106.36205891405646 87.38793710147348 H 0.0 **** 0.06
29229 H 109.91811513218786 106.58674283908255 87.99532095282439 H 0.0 **** 0.06
29230 H 111.09368179833861 105.6445629819519 88.94359711732034 H 0.0 **** 0.06
29231 C 28.006182506588402 99.94980296078066 54.90105975493668 C 0.0 **** -0.24
29232 H 28.025536076830974 100.94787777285603 54.46334788733054 H 0.0 **** 0.06
29233 H 28.69691886408185 99.91051482869676 55.74370044439803 H 0.0 **** 0.06
29234 H 28.306653753591036 99.21869329148734 54.15073100528201 H 0.0 **** 0.06
29235 H 26.997715186990945 99.72338872526271 55.24631298290086 H 0.0 **** 0.06
29236 C 56.33417476261502 115.8801717805232 100.40878407419524 C 0.0 **** -0.24
29237 H 56.207564529267415 116.78752070174858 99.81828991933432 H 0.0 **** 0.06
29238 H 55.971196510927484 115.02421075196686 99.84018838881849 H 0.0 **** 0.06
29239 H 55.76702349931173 115.96916910535313 101.33502672870534 H 0.0 **** 0.06
29240 H 57.389808169773005 115.74169105539278 100.64055922011053 H 0.0 **** 0.06
29241 C 26.62618442018892 89.86166867087113 94.85984750033418 C 0.0 **** -0.24
29242 H 27.16956171620304 90.56663832124926 95.48938503071105 H 0.0 **** 0.06
29243 H 25.83394693211914 89.39001387640158 95.44164911189449 H 0.0 **** 0.06
29244 H 27.312425963734086 89.09787459318815 94.49392711810935 H 0.0 **** 0.06
29245 H 26.188984138583344 90.39264816064843 94.0135819796281 H 0.0 **** 0.06
29246 C 44.071431979734065 39.54859809791287 77.30586652261701 C 0.0 **** -0.24
29247 H 43.17571158161253 39.36366737832378 76.71342485344087 H 0.0 **** 0.06
29248 H 44.932075722640654 39.64370201884441 76.64399784617797 H 0.0 **** 0.06
29249 H 44.230932517558955 38.71741367945569 77.99230849067374 H 0.0 **** 0.06
29250 H 43.946467079754 40.470240038515925 77.87487928000917 H 0.0 **** 0.06
29251 C 60.943857935680434 88.18412378322861 61.64757453453128 C 0.0 **** -0.24
29252 H 60.28249962399219 87.44720732056174 61.19100151023908 H 0.0 **** 0.06
29253 H 60.404643836535065 88.7244655792224 62.424583139398145 H 0.0 **** 0.06
29254 H 61.28494082829966 88.88589147111821 60.885218808490116 H 0.0 **** 0.06
29255 H 61.803677755617336 87.67816557193834 62.08545656404926 H 0.0 **** 0.06
29256 C 47.06558302584544 117.15337777083987 79.3088399993604 C 0.0 **** -0.24
29257 H 47.62908466208853 117.36779678057522 80.21717968913498 H 0.0 **** 0.06
29258 H 47.33350399972906 116.16243037115271 78.94104355226773 H 0.0 **** 0.06
29259 H 47.30197935112923 117.89890689127151 78.55059888284347 H 0.0 **** 0.06
29260 H 45.99817691635643 117.18264220445145 79.52821723928938 H 0.0 **** 0.06
29261 C 99.3890769503706 15.084361796697436 66.87999281099533 C 0.0 **** -0.24
29262 H 99.8593614126487 15.892531106838305 66.3202344412419 H 0.0 **** 0.06
29263 H 99.40079618306333 14.173125157246261 66.281457889136 H 0.0 **** 0.06
29264 H 98.35944434046476 15.355159505097987 67.1111805915395 H 0.0 **** 0.06
29265 H 99.93740688602708 14.918187309889106 67.80680176712812 H 0.0 **** 0.06
29266 C 6.626490792547315 107.684684676606 60.712018387992686 C 0.0 **** -0.24
29267 H 6.119353528481383 107.0369032098809 61.428066305235745 H 0.0 **** 0.06
29268 H 6.529762172077142 108.72309023995876 61.03114236079645 H 0.0 **** 0.06
29269 H 6.1748924199184785 107.5621714228867 59.72851247934588 H 0.0 **** 0.06
29270 H 7.68238088934379 107.41562887882861 60.6635030200319 H 0.0 **** 0.06
29271 C 30.949613564646796 1.715857895822495 64.54025855307242 C 0.0 **** -0.24
29272 H 31.158662720871405 1.3708333647533095 65.5534239687469 H 0.0 **** 0.06
29273 H 31.449462403522688 1.0643006566627093 63.82386770885614 H 0.0 **** 0.06
29274 H 31.31498526823117 2.7355639664659748 64.42235365918276 H 0.0 **** 0.06
29275 H 29.87452473646033 1.6923802620020467 64.36407302356824 H 0.0 **** 0.06
29276 C 41.08476752336946 40.5930170165243 87.96073927384009 C 0.0 **** -0.24
29277 H 41.83706533064795 41.03051119254491 87.3047633609574 H 0.0 **** 0.06
29278 H 40.13612578887134 41.11184055620413 87.82143892584054 H 0.0 **** 0.06
29279 H 41.40497184752853 40.69284821893507 88.99759097933509 H 0.0 **** 0.06
29280 H 40.9613659726363 39.53675158932242 87.71828295219291 H 0.0 **** 0.06
29281 C 85.40318913746472 116.65883522339378 108.54514568558037 C 0.0 **** -0.24
29282 H 85.32838996312503 117.7126086362783 108.27860265513212 H 0.0 **** 0.06
29283 H 84.4503586574912 116.32023967822516 108.95569882123038 H 0.0 **** 0.06
29284 H 86.18767138196924 116.52671499777178 109.28987274108158 H 0.0 **** 0.06
29285 H 85.64399602461484 116.07523753254132 107.65688878769413 H 0.0 **** 0.06
29286 C 43.491548872898136 27.19892448666593 94.93908043776094 C 0.0 **** -0.24
29287 H 43.381927209298965 26.4925102848867 95.7617958342841 H 0.0 **** 0.06
29288 H 42.58458907625351 27.79614004116638 94.84911359328314 H 0.0 **** 0.06
29289 H 43.66059009500486 26.651851750633647 94.01175307474216 H 0.0 **** 0.06
29290 H 44.341303317220536 27.853172153422236 95.13370812918822 H 0.0 **** 0.06
29291 C 12.031605325562026 118.56878442383726 20.536435965556336 C 0.0 **** -0.24
29292 H 12.485439262811042 118.0385741993855 21.373210365453133 H 0.0 **** 0.06
29293 H 12.103417978911125 119.64320649548148 20.704898760543074 H 0.0 **** 0.06
29294 H 10.983364789179603 118.28308957818786 20.45107918714848 H 0.0 **** 0.06
29295 H 12.55502332583933 118.30935246499303 19.61585991667306 H 0.0 **** 0.06
29296 C 104.36970517699629 40.21208802451656 24.53647309926896 C 0.0 **** -0.24
29297 H 104.10415017130791 40.37078353907498 23.491977164246308 H 0.0 **** 0.06
29298 H 105.32452690006716 40.69584604607485 24.746511961574896 H 0.0 **** 0.06
29299 H 104.45364649614504 39.143050319304734 24.732714854093814 H 0.0 **** 0.06
29300 H 103.59777004144425 40.63945840968813 25.176627988950315 H 0.0 **** 0.06
29301 C 58.19479803427787 70.02204346650183 117.7514779475416 C 0.0 **** -0.24
29302 H 57.33547664442988 70.58193165339785 117.3825246546031 H 0.0 **** 0.06
29303 H 59.02295458235539 70.12460336804088 117.04981078812648 H 0.0 **** 0.06
29304 H 57.92785359388031 68.9697790388334 117.84889357147773 H 0.0 **** 0.06
29305 H 58.49209867628675 70.41416663348795 118.72484088402868 H 0.0 **** 0.06
29306 C 30.708720755337765 13.316333597639442 58.14591446502595 C 0.0 **** -0.24
29307 H 30.503451879536556 12.773890578754958 57.223235860929776 H 0.0 **** 0.06
29308 H 31.082792083485515 14.312252081510366 57.90730050839102 H 0.0 **** 0.06
29309 H 31.456568327688018 12.77626904289238 58.726346924086954 H 0.0 **** 0.06
29310 H 29.79093565525514 13.40327851992302 58.72866805022534 H 0.0 **** 0.06
29311 C 0.4268852153377338 88.94100050887886 79.19496705610692 C 0.0 **** -0.24
29312 H 1.504323253952876 88.83036065343464 79.0757671446757 H 0.0 **** 0.06
29313 H -0.025188141407454623 89.1605368283748 78.22730435523033 H 0.0 **** 0.06
29314 H 0.2201714451773853 89.75707327018768 79.88718827899129 H 0.0 **** 0.06
29315 H 0.008167725065050035 88.01508226973607 79.58930022694847 H 0.0 **** 0.06
29316 C 98.80098711135543 103.4739223111728 70.77417353741157 C 0.0 **** -0.24
29317 H 98.35421192534088 103.3611884008763 69.78659339368727 H 0.0 **** 0.06
29318 H 98.21690223464293 102.91122734975625 71.50282080588153 H 0.0 **** 0.06
29319 H 98.80837828351954 104.52856993556628 71.05063758057815 H 0.0 **** 0.06
29320 H 99.82263256567686 103.09562285856137 70.75528947667067 H 0.0 **** 0.06
29321 C 73.3600252622806 108.75213845750136 25.811214451133168 C 0.0 **** -0.24
29322 H 74.00021877005551 108.21417208617487 25.112645216557965 H 0.0 **** 0.06
29323 H 72.99494545887296 108.06263699162437 26.573297855229356 H 0.0 **** 0.06
29324 H 72.51521725975596 109.18034922102368 25.272874894540763 H 0.0 **** 0.06
29325 H 73.93142878020606 109.5496462550285 26.28617750472995 H 0.0 **** 0.06
29326 C 110.59305877429941 88.52414020270538 76.95033995299468 C 0.0 **** -0.24
29327 H 110.35601951715347 89.14800713762611 76.08820130917942 H 0.0 **** 0.06
29328 H 111.67100833591654 88.36708749035216 76.99900010542524 H 0.0 **** 0.06
29329 H 110.08868918458299 87.56237251313357 76.85285742368657 H 0.0 **** 0.06
29330 H 110.25655237602417 89.02002777419762 77.86094554473053 H 0.0 **** 0.06
29331 C 17.215783943654998 38.38328246622326 91.05281101652676 C 0.0 **** -0.24
29332 H 18.140293750633447 38.95617131210879 91.1241941461416 H 0.0 **** 0.06
29333 H 16.367591054349248 39.06771926699359 91.00630541035042 H 0.0 **** 0.06
29334 H 17.117940948569384 37.741400415489466 91.92851802845902 H 0.0 **** 0.06
29335 H 17.237221888885358 37.769519458340454 90.15181656380426 H 0.0 **** 0.06
29336 C 63.228324621708744 25.54205604653157 86.02959412133978 C 0.0 **** -0.24
29337 H 64.02486070786435 25.06464940867596 86.60118820248834 H 0.0 **** 0.06
29338 H 62.26315643000019 25.16906379559437 86.3725791413068 H 0.0 **** 0.06
29339 H 63.35190247303483 25.311358354292082 84.97193793821214 H 0.0 **** 0.06
29340 H 63.27392542902967 26.621319608731028 86.17420145595287 H 0.0 **** 0.06
29341 C 20.77457948922529 48.51660987159573 60.94755348788053 C 0.0 **** -0.24
29342 H 20.65513478572683 49.517199925033594 60.53059048299769 H 0.0 **** 0.06
29343 H 21.790143870701854 48.16577730840004 60.76274521280592 H 0.0 **** 0.06
29344 H 20.063562405355356 47.83979574519094 60.47522115461887 H 0.0 **** 0.06
29345 H 20.589953540508475 48.54679274257339 62.02166421692552 H 0.0 **** 0.06
29346 C 43.9320077707328 43.7232042244039 49.158890619796125 C 0.0 **** -0.24
29347 H 44.86469624889867 43.20231491693944 48.94369752408173 H 0.0 **** 0.06
29348 H 43.15381091348962 42.99505773489004 49.3883201935827 H 0.0 **** 0.06
29349 H 43.634781925353714 44.31058632222755 48.29012215914693 H 0.0 **** 0.06
29350 H 44.07474199518968 44.38485792355858 50.013422602373026 H 0.0 **** 0.06
29351 C 96.7642898451549 28.31046093967545 32.62653318415204 C 0.0 **** -0.24
29352 H 96.47398240868489 29.246773767336975 32.15085325046704 H 0.0 **** 0.06
29353 H 97.85109092898352 28.259947989233666 32.697887615681964 H 0.0 **** 0.06
29354 H 96.3993263141358 27.47236398249632 32.03196296952899 H 0.0 **** 0.06
29355 H 96.33149124988842 28.26163231532385 33.6264890826364 H 0.0 **** 0.06
29356 C 85.97279429634358 99.8000130587888 19.55701141566351 C 0.0 **** -0.24
29357 H 87.04074431246997 100.00770991856993 19.621006150661742 H 0.0 **** 0.06
29358 H 85.7918225887235 98.75217159734632 19.79962462362093 H 0.0 **** 0.06
29359 H 85.6234228751035 100.00406132367561 18.545379355141137 H 0.0 **** 0.06
29360 H 85.436984660219 100.43477968526781 20.262080828427003 H 0.0 **** 0.06
29361 C 61.31562259808243 61.64657977211618 71.70397211163774 C 0.0 **** -0.24
29362 H 60.5498681324338 61.90418971142665 72.43528446282409 H 0.0 **** 0.06
29363 H 61.06572132760118 62.097192651456425 70.7429866749604 H 0.0 **** 0.06
29364 H 61.36677936918659 60.56373193277119 71.59666867208114 H 0.0 **** 0.06
29365 H 62.2816620024181 62.02341719616257 72.04226501245378 H 0.0 **** 0.06
29366 C 112.93951283206758 106.93740246918605 49.62303922797932 C 0.0 **** -0.24
29367 H 113.47268512510742 107.2458697521406 48.724122783701745 H 0.0 **** 0.06
29368 H 113.40663199530584 106.03978763476724 50.03216885634319 H 0.0 **** 0.06
29369 H 111.90006892177186 106.72485889214462 49.374684426628974 H 0.0 **** 0.06
29370 H 112.98077845031565 107.73794549810825 50.36164641546634 H 0.0 **** 0.06
29371 C 72.18278664792558 28.353102140361898 32.86720873143656 C 0.0 **** -0.24
29372 H 72.24284183105732 27.886455369173916 33.85007835347278 H 0.0 **** 0.06
29373 H 73.02814984017593 29.02775073416734 32.733365935860405 H 0.0 **** 0.06
29374 H 71.25235770366785 28.91540706936803 32.789140117205335 H 0.0 **** 0.06
29375 H 72.20675926383504 27.582014631948425 32.09681015265224 H 0.0 **** 0.06
29376 C 52.65560299997192 88.01843197729809 99.44676702205359 C 0.0 **** -0.24
29377 H 51.650844977399544 88.1119432862667 99.85879313437928 H 0.0 **** 0.06
29378 H 52.617824710362335 88.14975384065391 98.36542714466955 H 0.0 **** 0.06
29379 H 53.05193195561628 87.02956858475247 99.6794646284171 H 0.0 **** 0.06
29380 H 53.29958475195785 88.78006882333418 99.88394805996543 H 0.0 **** 0.06
29381 C 11.13957750761432 112.63469280401276 105.1198698546543 C 0.0 **** -0.24
29382 H 12.122379093750709 112.36201903537872 105.50346415330264 H 0.0 **** 0.06
29383 H 10.919881012011814 113.66856681328028 105.38952269772204 H 0.0 **** 0.06
29384 H 10.385866536998748 111.97840820759339 105.55355614511811 H 0.0 **** 0.06
29385 H 11.131801051821299 112.53176765064444 104.03566074418583 H 0.0 **** 0.06
29386 C 37.62257496198822 95.68362277304573 4.058719201525438 C 0.0 **** -0.24
29387 H 37.73154129142071 95.95884055968716 3.0095828471456283 H 0.0 **** 0.06
29388 H 38.44283378480796 96.11523388332714 4.633804398498068 H 0.0 **** 0.06
29389 H 37.644496297792074 94.59820518340251 4.153917180990165 H 0.0 **** 0.06
29390 H 36.67340230274942 96.06244153378057 4.437345878380077 H 0.0 **** 0.06
29391 C 34.22496023368285 31.600239555258163 3.230050820658434 C 0.0 **** -0.24
29392 H 33.22805175823345 31.70222705809436 3.6594779288872132 H 0.0 **** 0.06
29393 H 34.40689151852877 30.554873644790035 2.9786552204743657 H 0.0 **** 0.06
29394 H 34.967811297430046 31.936112407084472 3.9525936996463713 H 0.0 **** 0.06
29395 H 34.29517511353032 32.20855607585355 2.327310793303681 H 0.0 **** 0.06
29396 C 52.885796858667 110.73922264958313 85.17970496276223 C 0.0 **** -0.24
29397 H 52.08050227708495 111.47314859056942 85.14641940808369 H 0.0 **** 0.06
29398 H 52.99428219716241 110.27426064332782 84.19942547181134 H 0.0 **** 0.06
29399 H 52.650440971508154 109.97508564259648 85.92026744383793 H 0.0 **** 0.06
29400 H 53.81708669722095 111.23498972749157 85.45176883734811 H 0.0 **** 0.06
29401 C 61.98258646472436 17.74856926649371 2.150557161476801 C 0.0 **** -0.24
29402 H 61.45741582703138 18.339290910246667 2.9011904382664326 H 0.0 **** 0.06
29403 H 61.61916623490663 18.017027551401064 1.1584989635911231 H 0.0 **** 0.06
29404 H 61.801011747858354 16.689217523580126 2.3297526681041685 H 0.0 **** 0.06
29405 H 63.052090752735296 17.949953139988327 2.2130927076631313 H 0.0 **** 0.06
29406 C 69.35823619928587 49.66112880709596 22.914801067009563 C 0.0 **** -0.24
29407 H 69.6224979908724 50.489878548618435 23.570377182604922 H 0.0 **** 0.06
29408 H 69.48614420009184 49.964428957189284 21.875720642873272 H 0.0 **** 0.06
29409 H 68.31877630699702 49.37968538398047 23.085825480398306 H 0.0 **** 0.06
29410 H 70.00480805944471 48.809651307943966 23.1264291673506 H 0.0 **** 0.06
29411 C 76.00206510575097 13.479153402232427 85.36628802166558 C 0.0 **** -0.24
29412 H 74.95447210580835 13.228214714692768 85.52941431653755 H 0.0 **** 0.06
29413 H 76.4300577751242 12.793630603595531 84.63514144754527 H 0.0 **** 0.06
29414 H 76.54658275867956 13.394145572708638 86.30673087855581 H 0.0 **** 0.06
29415 H 76.07714778339195 14.500622717932885 84.99386544402364 H 0.0 **** 0.06
29416 C 117.60772501508734 72.21076406929842 43.23201716028629 C 0.0 **** -0.24
29417 H 116.85135730533781 71.64065075334756 43.772768810907024 H 0.0 **** 0.06
29418 H 117.31563614906618 73.26119430023749 43.199766725636636 H 0.0 **** 0.06
29419 H 117.69425299291963 71.8251517630853 42.21586330105012 H 0.0 **** 0.06
29420 H 118.56688343572704 72.11471188383277 43.74089894916463 H 0.0 **** 0.06
29421 C 16.88322546025887 99.30204855809373 38.26961257231645 C 0.0 **** -0.24
29422 H 16.541413075939715 99.32899247787083 37.23516351042909 H 0.0 **** 0.06
29423 H 17.324262592663217 100.26404002334863 38.532230707834316 H 0.0 **** 0.06
29424 H 17.630495635000727 98.51561484828812 38.38401967509205 H 0.0 **** 0.06
29425 H 16.038409285919613 99.09807070301613 38.92698172093404 H 0.0 **** 0.06
29426 C 66.72098924144663 112.5431218819862 90.35642046357086 C 0.0 **** -0.24
29427 H 65.71420590185153 112.59983433157171 89.94228330244749 H 0.0 **** 0.06
29428 H 66.923956307633 111.52245025271895 90.67896704945628 H 0.0 **** 0.06
29429 H 66.80178787176658 113.21744750319237 91.20912622857625 H 0.0 **** 0.06
29430 H 67.4443990617819 112.83452871326179 89.59400066912198 H 0.0 **** 0.06
29431 C 57.84684672297118 39.15063709076355 37.520895979344004 C 0.0 **** -0.24
29432 H 56.87140853833944 39.07556211623671 38.00000722021164 H 0.0 **** 0.06
29433 H 57.8943927411529 40.06945198666125 36.934729409314485 H 0.0 **** 0.06
29434 H 57.996803234762695 38.293017488431076 36.864777656053576 H 0.0 **** 0.06
29435 H 58.626445106866015 39.16561577054898 38.28305581432639 H 0.0 **** 0.06
29436 C 109.48595402253818 28.506904092745913 8.864367222104335 C 0.0 **** -0.24
29437 H 109.82014935681119 28.807179347016984 7.870868925379014 H 0.0 **** 0.06
29438 H 110.01144323408721 29.093504892116158 9.617709202948163 H 0.0 **** 0.06
29439 H 109.7000921904762 27.448451764465347 9.014517544336272 H 0.0 **** 0.06
29440 H 108.41330530316773 28.67668656426963 8.953188159254964 H 0.0 **** 0.06
29441 C 7.005172512159959 3.94929314877562 111.35541357762989 C 0.0 **** -0.24
29442 H 7.370693505829685 3.548770217363458 110.40992304544545 H 0.0 **** 0.06
29443 H 7.526387210563797 3.4654206151902205 112.18193292234226 H 0.0 **** 0.06
29444 H 5.934508030205558 3.76045630239218 111.44001761112352 H 0.0 **** 0.06
29445 H 7.187310729317968 5.023858835299357 111.3899082182485 H 0.0 **** 0.06
29446 C 90.01336792129783 69.51013769310299 59.06254033443573 C 0.0 **** -0.24
29447 H 89.51677804999525 68.6108285221018 58.700197956463136 H 0.0 **** 0.06
29448 H 89.92475871610478 69.56058386918673 60.14848520100988 H 0.0 **** 0.06
29449 H 89.54456724680176 70.38762382123335 58.61864111655684 H 0.0 **** 0.06
29450 H 91.06691636453303 69.48133464048834 58.78523795972672 H 0.0 **** 0.06
29451 C 73.2472504367766 11.525131507077248 56.078422725004565 C 0.0 **** -0.24
29452 H 73.00268086054561 11.0767082720335 55.116748791674446 H 0.0 **** 0.06
29453 H 72.33666496710202 11.897812590428373 56.54751811194735 H 0.0 **** 0.06
29454 H 73.94322115307838 12.349823581287552 55.92848191014719 H 0.0 **** 0.06
29455 H 73.70642009411583 10.774730110187363 56.72291524570061 H 0.0 **** 0.06
29456 C 41.49859084701245 107.01869635693797 109.5605087433344 C 0.0 **** -0.24
29457 H 40.857582582191355 107.43401340720382 108.78343753056777 H 0.0 **** 0.06
29458 H 42.40634100333148 106.61899239106728 109.10734428879869 H 0.0 **** 0.06
29459 H 40.969300486049065 106.21903617049557 110.07900068050746 H 0.0 **** 0.06
29460 H 41.76209337951883 107.80086055210404 110.27151442320634 H 0.0 **** 0.06
29461 C 27.790001938231114 52.30865105349733 90.42130019912463 C 0.0 **** -0.24
29462 H 26.759919184854496 51.99287325811349 90.58850818925058 H 0.0 **** 0.06
29463 H 27.910599354783294 53.34132682148174 90.74991036337676 H 0.0 **** 0.06
29464 H 28.02544166143042 52.23348197090945 89.3601874563306 H 0.0 **** 0.06
29465 H 28.46337361283814 51.66570309868678 90.98860974127868 H 0.0 **** 0.06
29466 C 58.21020143641618 49.50027319679327 114.60993966978937 C 0.0 **** -0.24
29467 H 58.63567373713571 49.35835352776985 113.61604845345015 H 0.0 **** 0.06
29468 H 57.5399021140335 50.35938436215474 114.59821966442037 H 0.0 **** 0.06
29469 H 59.01207082165808 49.67341335779352 115.32669657522676 H 0.0 **** 0.06
29470 H 57.652919206548454 48.60799047298491 114.89561017959514 H 0.0 **** 0.06
29471 C 96.51104111573102 17.37405531966192 37.40644994728808 C 0.0 **** -0.24
29472 H 95.99316213550003 17.977732229698944 38.151842546580895 H 0.0 **** 0.06
29473 H 97.58773027197321 17.492200585752897 37.528161581904385 H 0.0 **** 0.06
29474 H 96.22063549347598 17.70143493293392 36.40827976230008 H 0.0 **** 0.06
29475 H 96.24279826930825 16.325814402750893 37.53774091693646 H 0.0 **** 0.06
29476 C 24.770830239334217 93.25759406858654 112.24643563055491 C 0.0 **** -0.24
29477 H 24.344605078478054 93.27270670683288 111.24277017021176 H 0.0 **** 0.06
29478 H 25.412561459444532 92.38362417871977 112.35519318183802 H 0.0 **** 0.06
29479 H 23.966724407741367 93.21171066668 112.98146429964304 H 0.0 **** 0.06
29480 H 25.356748666804748 94.16267663501208 112.40548183167144 H 0.0 **** 0.06
29481 C 53.35785627464043 71.38896370248358 56.59024722102931 C 0.0 **** -0.24
29482 H 54.4448990148253 71.32177740469149 56.52816047100291 H 0.0 **** 0.06
29483 H 52.97299325281954 71.87855457679098 55.6958022620178 H 0.0 **** 0.06
29484 H 53.080091292004305 71.96759781925653 57.4706196874017 H 0.0 **** 0.06
29485 H 52.9368803392377 70.38647112615962 56.66615807637621 H 0.0 **** 0.06
29486 C 35.88268867299939 41.344836851905924 67.63210385911822 C 0.0 **** -0.24
29487 H 36.75955007271767 40.98575148144482 68.17081282294743 H 0.0 **** 0.06
29488 H 35.939911781120486 42.42807456731545 67.52478590868338 H 0.0 **** 0.06
29489 H 34.98233189068884 41.08220738020469 68.18868185911964 H 0.0 **** 0.06
29490 H 35.848527241263696 40.88249592466224 66.64559869757935 H 0.0 **** 0.06
29491 C 51.94902594709511 5.624466713783519 108.86543807733858 C 0.0 **** -0.24
29492 H 52.12603645374199 6.414534193304235 108.13644756913857 H 0.0 **** 0.06
29493 H 52.0905041047541 4.653265841954635 108.39105070640534 H 0.0 **** 0.06
29494 H 50.92801702101316 5.700374848518138 109.2416300404999 H 0.0 **** 0.06
29495 H 52.64894579057599 5.730927602254695 109.69346753821219 H 0.0 **** 0.06
29496 C 22.613634689606727 100.06563018152275 105.36339847079518 C 0.0 **** -0.24
29497 H 21.879581582516607 100.25446306317406 106.1468043392203 H 0.0 **** 0.06
29498 H 22.957662031981187 99.03288493096372 105.43025712485377 H 0.0 **** 0.06
29499 H 23.4605240323327 100.73986323760843 105.48980961854556 H 0.0 **** 0.06
29500 H 22.15607557522344 100.23403881733304 104.38869813861709 H 0.0 **** 0.06
29501 C 33.552736745727934 54.981362501097415 93.80446280976076 C 0.0 **** -0.24
29502 H 33.85354671999791 54.47414472328692 94.72024605687412 H 0.0 **** 0.06
29503 H 33.94478758355684 54.44006493801734 92.94365351938862 H 0.0 **** 0.06
29504 H 33.94830534687045 55.99791250702442 93.80626250057236 H 0.0 **** 0.06
29505 H 32.46481885940658 55.01547346050423 93.74805648869653 H 0.0 **** 0.06
29506 C 17.5658378984931 65.38300285826446 84.44967836041198 C 0.0 **** -0.24
29507 H 18.228631036139376 65.23385160770638 85.30200266736648 H 0.0 **** 0.06
29508 H 17.930986198970373 66.21566550395195 83.8479822234257 H 0.0 **** 0.06
29509 H 16.560078757108187 65.60436452716141 84.80524419753806 H 0.0 **** 0.06
29510 H 17.545792331795724 64.47798954427202 83.84284014258498 H 0.0 **** 0.06
29511 C 99.0324713486207 66.21890269124188 46.04348092985583 C 0.0 **** -0.24
29512 H 98.17747369925974 66.85024134483541 46.28616821207663 H 0.0 **** 0.06
29513 H 99.92074812008738 66.841004876689 45.9295165848219 H 0.0 **** 0.06
29514 H 98.83778678773302 65.6866259122713 45.111680521091216 H 0.0 **** 0.06
29515 H 99.19195609459877 65.49911298772392 46.845908451765695 H 0.0 **** 0.06
29516 C 93.25143032496342 97.81034108789595 23.704815242098277 C 0.0 **** -0.24
29517 H 93.43820752847861 98.15260789719144 22.686371652849722 H 0.0 **** 0.06
29518 H 94.12885710294583 97.2813076201916 24.076955560733936 H 0.0 **** 0.06
29519 H 92.39237053735005 97.13968451404622 23.709972006129064 H 0.0 **** 0.06
29520 H 93.04621493795588 98.66946134491945 24.344196701985346 H 0.0 **** 0.06
29521 C 57.86841972610446 85.74508056118259 104.85744537343521 C 0.0 **** -0.24
29522 H 58.614282905174264 84.99245840937999 105.11263661662619 H 0.0 **** 0.06
29523 H 57.06124266893636 85.7184336514294 105.58985082303502 H 0.0 **** 0.06
29524 H 57.467348920319296 85.53771309031475 103.86581416343091 H 0.0 **** 0.06
29525 H 58.33271085769121 86.73141651328123 104.86298835343374 H 0.0 **** 0.06
29526 C 69.68290672515158 116.90075322249284 21.69418396688809 C 0.0 **** -0.24
29527 H 70.62970900824206 117.41880893481652 21.543163250284522 H 0.0 **** 0.06
29528 H 69.56040887738871 116.13590903579689 20.92681947734195 H 0.0 **** 0.06
29529 H 68.86344583883965 117.61615165680828 21.62977536839071 H 0.0 **** 0.06
29530 H 69.67972882651836 116.43161154794423 22.678371751870003 H 0.0 **** 0.06
29531 C 56.60356959250012 45.42053312719685 61.79139711694805 C 0.0 **** -0.24
29532 H 55.8223734136443 45.9163147658233 61.21467734136485 H 0.0 **** 0.06
29533 H 56.96082767715828 46.09313363568856 62.57235095181966 H 0.0 **** 0.06
29534 H 57.42931386959248 45.15667237939411 61.132159417134034 H 0.0 **** 0.06
29535 H 56.19812204913947 44.51650496604708 62.247106469799434 H 0.0 **** 0.06
29536 C 69.27277133770374 86.32157639854796 44.17840478794088 C 0.0 **** -0.24
29537 H 69.47759344586561 86.21416120922405 43.11307598016964 H 0.0 **** 0.06
29538 H 69.80702984814829 85.54734451443198 44.72989681511308 H 0.0 **** 0.06
29539 H 68.201698155732 86.22021572045875 44.35385800103603 H 0.0 **** 0.06
29540 H 69.60575753708912 87.30263176354447 44.516339838912955 H 0.0 **** 0.06
29541 C 58.714058862026185 21.277454932224487 23.159873495899205 C 0.0 **** -0.24
29542 H 58.469602714946326 22.190394307833685 22.616280363630636 H 0.0 **** 0.06
29543 H 57.795326117035934 20.800520303589167 23.50123850642612 H 0.0 **** 0.06
29544 H 59.33816983902869 21.522808229281594 24.01942095970466 H 0.0 **** 0.06
29545 H 59.253924496308805 20.59663849207169 22.50110973722235 H 0.0 **** 0.06
29546 C 52.62198471237747 117.88975823191066 9.627532585599525 C 0.0 **** -0.24
29547 H 53.21846125446072 117.04158233058257 9.965497111458404 H 0.0 **** 0.06
29548 H 51.75205529596752 117.5269456643398 9.080464585662654 H 0.0 **** 0.06
29549 H 53.22595825199801 118.51981304615637 8.974994133157793 H 0.0 **** 0.06
29550 H 52.29347100863163 118.46944392049147 10.491022541624545 H 0.0 **** 0.06
29551 C 115.51897332116712 75.64070648830244 31.992080940815498 C 0.0 **** -0.24
29552 H 115.7033809337783 75.85136618623329 33.045213342917265 H 0.0 **** 0.06
29553 H 116.35307664324617 75.06827458856776 31.584414379647797 H 0.0 **** 0.06
29554 H 115.4202839420222 76.57834381318122 31.44618520665736 H 0.0 **** 0.06
29555 H 114.60023550675271 75.06302485212558 31.89323614645761 H 0.0 **** 0.06
29556 C 88.77869326345649 55.20486243338481 77.86086906266178 C 0.0 **** -0.24
29557 H 88.7511389138815 56.08121813998323 78.50829550006179 H 0.0 **** 0.06
29558 H 88.60796870631987 54.308181994232385 78.4569579053697 H 0.0 **** 0.06
29559 H 89.75377712969072 55.14081559031151 77.37789905557887 H 0.0 **** 0.06
29560 H 88.0011654629451 55.29000807685866 77.10126103933163 H 0.0 **** 0.06
29561 C 14.04797259977991 19.0512217468075 26.38590981319706 C 0.0 **** -0.24
29562 H 13.591183594655945 19.04284708714607 25.39594805785123 H 0.0 **** 0.06
29563 H 14.93722068803828 18.41966478485523 26.380589902548024 H 0.0 **** 0.06
29564 H 13.33553946709759 18.66877356698032 27.117348828468977 H 0.0 **** 0.06
29565 H 14.327411632074359 20.071392946234425 26.64806833145812 H 0.0 **** 0.06
29566 C 30.38782485258497 33.9534086520405 117.75141237115267 C 0.0 **** -0.24
29567 H 30.79664110897795 33.954420906462765 118.76219813236244 H 0.0 **** 0.06
29568 H 30.235734413911302 34.98120744321139 117.41941266091115 H 0.0 **** 0.06
29569 H 29.43474712997829 33.42481686075324 117.74565699630524 H 0.0 **** 0.06
29570 H 31.085286322974127 33.454291012607364 117.07912700352163 H 0.0 **** 0.06
29571 C 65.06288092558754 111.48082814811764 57.83353503894812 C 0.0 **** -0.24
29572 H 65.16009494928136 111.93275228781334 58.820390926924084 H 0.0 **** 0.06
29573 H 64.84389675379288 112.2569363492828 57.09881898555833 H 0.0 **** 0.06
29574 H 64.25148010097882 110.75253253548466 57.8448848945336 H 0.0 **** 0.06
29575 H 65.99538057487058 110.98203122672858 57.56922913490707 H 0.0 **** 0.06
29576 C 85.67237944085394 116.36352916592585 43.81066065994847 C 0.0 **** -0.24
29577 H 85.05375808508478 116.20333292736083 42.92686632226267 H 0.0 **** 0.06
29578 H 86.2511927081251 117.27880479004666 43.687911785025136 H 0.0 **** 0.06
29579 H 86.35009025269204 115.51828123231482 43.93587899870059 H 0.0 **** 0.06
29580 H 85.0341263423376 116.45061199086871 44.68927323854109 H 0.0 **** 0.06
29581 C 76.44639654977252 19.40174144076167 59.10417883887584 C 0.0 **** -0.24
29582 H 77.14519345586527 20.056670349016485 58.58551471770511 H 0.0 **** 0.06
29583 H 77.00150154977109 18.692541739085414 59.71980933576333 H 0.0 **** 0.06
29584 H 75.84658801283908 18.85827221975643 58.374390875394454 H 0.0 **** 0.06
29585 H 75.79163367325083 19.99884747070763 59.73926982632253 H 0.0 **** 0.06
29586 C 19.283052287917258 10.294653256300165 28.19007603795876 C 0.0 **** -0.24
29587 H 20.364655019310533 10.400992181337813 28.099775399156073 H 0.0 **** 0.06
29588 H 18.92447635759754 10.9138164450371 29.01272411065456 H 0.0 **** 0.06
29589 H 19.035359542087576 9.25093796835003 28.384963964948057 H 0.0 **** 0.06
29590 H 18.809568515660885 10.61303038955083 27.261595742105563 H 0.0 **** 0.06
29591 C 35.264405972986964 89.77785413868168 98.04370042728533 C 0.0 **** -0.24
29592 H 36.068488487825164 90.44581236861745 98.35380158355701 H 0.0 **** 0.06
29593 H 35.52939638940731 88.75084430384891 98.2956001421116 H 0.0 **** 0.06
29594 H 35.11770021629886 89.86122247499924 96.96737350513715 H 0.0 **** 0.06
29595 H 34.34456760046265 90.05307726080105 98.55920711117957 H 0.0 **** 0.06
29596 C 48.31769711511823 35.346866335430406 89.6309572238001 C 0.0 **** -0.24
29597 H 47.77874650959783 36.11734279201252 90.18322880791752 H 0.0 **** 0.06
29598 H 48.95392492538348 35.81666988346021 88.87985506039473 H 0.0 **** 0.06
29599 H 47.60328651810639 34.68599557538238 89.13948195436629 H 0.0 **** 0.06
29600 H 48.93328308634276 34.76934810025776 90.31983827777654 H 0.0 **** 0.06
29601 C 109.30673239042224 28.053806266924674 56.00761105016404 C 0.0 **** -0.24
29602 H 108.81445136218375 27.207774577983642 55.527277434432754 H 0.0 **** 0.06
29603 H 108.77665136688816 28.309266805924437 56.92550082005554 H 0.0 **** 0.06
29604 H 109.29874444982909 28.90914782160315 55.33223961966885 H 0.0 **** 0.06
29605 H 110.33644894267469 27.787008439638612 56.24420621880642 H 0.0 **** 0.06
29606 C 6.418745929926903 90.65554703479054 42.245829929000905 C 0.0 **** -0.24
29607 H 5.524168135260435 91.07719754757974 41.78707944401614 H 0.0 **** 0.06
29608 H 6.409411119890658 89.5716097866466 42.12978901250119 H 0.0 **** 0.06
29609 H 6.435672848166499 90.90764478589759 43.306094408543856 H 0.0 **** 0.06
29610 H 7.303519995387518 91.0655373321207 41.75932263268729 H 0.0 **** 0.06
29611 C 101.96967099262832 57.05908921376522 113.11656467317363 C 0.0 **** -0.24
29612 H 102.6559217855262 57.42454335460559 113.88133703397459 H 0.0 **** 0.06
29613 H 101.21674345404236 57.819482681381544 112.91181750749159 H 0.0 **** 0.06
29614 H 101.48321027335453 56.15005345901841 113.4709339179642 H 0.0 **** 0.06
29615 H 102.52568841265577 56.8415460991875 112.20364392268317 H 0.0 **** 0.06
29616 C 113.26341088540481 93.38630055462494 42.78360909545214 C 0.0 **** -0.24
29617 H 112.86248714587282 92.7939731911857 41.96125089801522 H 0.0 **** 0.06
29618 H 113.62145857215367 94.34284842573524 42.40185440812055 H 0.0 **** 0.06
29619 H 114.0900894787361 92.84914613280256 43.249195000315275 H 0.0 **** 0.06
29620 H 112.48073729956562 93.5598076936391 43.52150600263262 H 0.0 **** 0.06
29621 C 64.48985610814196 90.09693171481524 58.8977027094829 C 0.0 **** -0.24
29622 H 63.873582797978486 90.3437704255982 59.76207092543291 H 0.0 **** 0.06
29623 H 65.17162362738435 90.9224378304508 58.690366413818055 H 0.0 **** 0.06
29624 H 63.850446751143636 89.9267888845315 58.032662512313436 H 0.0 **** 0.06
29625 H 65.0655818958021 89.19523203847007 59.108788326097454 H 0.0 **** 0.06
29626 C 53.00836001524749 48.56055701894323 81.348395693392 C 0.0 **** -0.24
29627 H 52.7049760617908 48.5034372416288 80.30341290421359 H 0.0 **** 0.06
29628 H 53.97010515505286 49.06940008204634 81.42093294568505 H 0.0 **** 0.06
29629 H 53.097235554842996 47.554094044093716 81.75588056200127 H 0.0 **** 0.06
29630 H 52.25954442777744 49.11676281160129 81.91395471717752 H 0.0 **** 0.06
29631 C 95.92928286792687 70.35461844290518 72.01285396698893 C 0.0 **** -0.24
29632 H 96.85225380084492 70.52215760043171 72.56758708461481 H 0.0 **** 0.06
29633 H 96.16128431915834 70.20628803280349 70.95814026470518 H 0.0 **** 0.06
29634 H 95.27587591444944 71.21964984096661 72.12391958143601 H 0.0 **** 0.06
29635 H 95.42767208253466 69.46788758538321 72.40310862558562 H 0.0 **** 0.06
29636 C 0.8962916042751203 94.08533263913387 102.52881153131872 C 0.0 **** -0.24
29637 H 0.7435402139658436 94.37770919917205 101.49019201646905 H 0.0 **** 0.06
29638 H 0.608783302936672 93.04154799079916 102.65843870226408 H 0.0 **** 0.06
29639 H 0.2847050660589048 94.71431002489263 103.17673514019074 H 0.0 **** 0.06
29640 H 1.947608762648656 94.208951503554 102.78932486396062 H 0.0 **** 0.06
29641 C 32.849555213513995 44.111221763592255 101.54388025753374 C 0.0 **** -0.24
29642 H 33.28460386845021 43.40650722530381 100.8359674141573 H 0.0 **** 0.06
29643 H 33.641439178059926 44.55154145032287 102.15049379062674 H 0.0 **** 0.06
29644 H 32.14555130201968 43.587640925883136 102.19086416962222 H 0.0 **** 0.06
29645 H 32.327716687733876 44.898070361506996 100.99978985164856 H 0.0 **** 0.06
29646 C 91.46942167469169 15.007100534462083 28.204904318881688 C 0.0 **** -0.24
29647 H 91.19060884549557 15.618474789647237 27.347190822415854 H 0.0 **** 0.06
29648 H 92.10696238509374 14.186925561691098 27.874882466074496 H 0.0 **** 0.06
29649 H 90.57019478234389 14.604120957746986 28.67094083168803 H 0.0 **** 0.06
29650 H 92.00971347561443 15.619715332802329 28.927113768207093 H 0.0 **** 0.06
29651 C 57.16615797316005 74.67629319886785 95.31444829257464 C 0.0 **** -0.24
29652 H 58.19663184909265 74.39685211699364 95.09466919526756 H 0.0 **** 0.06
29653 H 56.53584932969131 73.7878645659508 95.2913162707722 H 0.0 **** 0.06
29654 H 56.817162113980935 75.38965047981887 94.56766059530406 H 0.0 **** 0.06
29655 H 57.117039938541076 75.1314026434456 96.30348689637628 H 0.0 **** 0.06
29656 C 56.29700912817901 68.94251815066642 3.9908610153287682 C 0.0 **** -0.24
29657 H 55.969282532255306 68.11286530665765 4.617569104282492 H 0.0 **** 0.06
29658 H 57.2361681468455 68.68094343051379 3.503046921345131 H 0.0 **** 0.06
29659 H 56.44178001743438 69.82888840894537 4.607702701379399 H 0.0 **** 0.06
29660 H 55.53908846199289 69.14646080336584 3.2340233375115606 H 0.0 **** 0.06
29661 C 9.240926360124377 67.45766330559297 62.312480116824 C 0.0 **** -0.24
29662 H 8.353483121633644 67.30564803914194 61.69749111552661 H 0.0 **** 0.06
29663 H 8.990304938441966 67.28848571295083 63.36015586352938 H 0.0 **** 0.06
29664 H 9.599277713800063 68.47908837989922 62.18471591618982 H 0.0 **** 0.06
29665 H 10.01877743280562 66.75896951246108 62.007150516692995 H 0.0 **** 0.06
29666 C 106.19426912411893 96.56626880098997 34.28391144727169 C 0.0 **** -0.24
29667 H 105.80618159629626 95.56974677952297 34.49586080274157 H 0.0 **** 0.06
29668 H 106.25922463780546 97.13461615530423 35.21092037191254 H 0.0 **** 0.06
29669 H 105.5248679008456 97.07613037274766 33.589910119911266 H 0.0 **** 0.06
29670 H 107.18483780091833 96.48183580435574 33.83734194995114 H 0.0 **** 0.06
29671 C 3.460209311758831 28.681414825427623 37.51921709843347 C 0.0 **** -0.24
29672 H 4.098854897801516 29.307078060059467 38.143234676451726 H 0.0 **** 0.06
29673 H 2.857828122796235 28.03115912980985 38.15432264751692 H 0.0 **** 0.06
29674 H 4.07992588767911 28.073659961036867 36.859481551008656 H 0.0 **** 0.06
29675 H 2.804687598505552 29.314157239124228 36.921452220632716 H 0.0 **** 0.06
29676 C 21.11822680709247 56.76345457579445 58.527691397173164 C 0.0 **** -0.24
29677 H 21.741592699515166 55.875581848361485 58.416603053558696 H 0.0 **** 0.06
29678 H 20.2246441567805 56.65876385666919 57.91169747169189 H 0.0 **** 0.06
29679 H 21.678593495866266 57.642514919356195 58.209916894732395 H 0.0 **** 0.06
29680 H 20.82860888700162 56.87483569193517 59.57208510382058 H 0.0 **** 0.06
29681 C 99.22185339973714 67.46525647491265 28.84280811113522 C 0.0 **** -0.24
29682 H 98.41604158365107 67.51121604877468 28.109494625822386 H 0.0 **** 0.06
29683 H 100.15655669199208 67.2179136563517 28.340057849337867 H 0.0 **** 0.06
29684 H 98.99366765245776 66.699785825117 29.585108974841425 H 0.0 **** 0.06
29685 H 99.31880850600118 68.43278447466076 29.336843467064902 H 0.0 **** 0.06
29686 C 100.27978110255222 37.802694009350155 47.26267257551562 C 0.0 **** -0.24
29687 H 99.89822738774438 36.81954312053893 46.98611933676433 H 0.0 **** 0.06
29688 H 100.88492858343699 37.7169655919301 48.16467572351916 H 0.0 **** 0.06
29689 H 99.44307160631368 38.4771033717943 47.44902946426384 H 0.0 **** 0.06
29690 H 100.88958788883266 38.1973164912677 46.45069765061903 H 0.0 **** 0.06
29691 C 103.5692729929201 89.34514490963619 41.467076815452785 C 0.0 **** -0.24
29692 H 104.65293606333265 89.41423227492672 41.370656526267254 H 0.0 **** 0.06
29693 H 103.3195366047876 88.82275329232391 42.39063152979872 H 0.0 **** 0.06
29694 H 103.16351850701045 88.79609321245525 40.61697026941008 H 0.0 **** 0.06
29695 H 103.14207932181407 90.34805592823474 41.488116404559094 H 0.0 **** 0.06
29696 C 16.402626916457848 88.93121131652117 19.98933254298042 C 0.0 **** -0.24
29697 H 17.208164182946433 88.64551157180085 20.66557282615453 H 0.0 **** 0.06
29698 H 16.812382576199326 89.12123380751746 18.996784114233122 H 0.0 **** 0.06
29699 H 15.917442056579475 89.83333316580212 20.36258636549701 H 0.0 **** 0.06
29700 H 15.673347819085166 88.12250804390897 19.932846800535415 H 0.0 **** 0.06
29701 C 99.91831156358955 15.67780554549385 58.55482812334449 C 0.0 **** -0.24
29702 H 100.0996052135107 15.823405964366067 57.4894775920348 H 0.0 **** 0.06
29703 H 100.379002317463 14.74322175794758 58.87659326713006 H 0.0 **** 0.06
29704 H 98.84515844927512 15.6373656590626 58.738530371027906 H 0.0 **** 0.06
29705 H 100.35146317279793 16.50791487738889 59.1128144553679 H 0.0 **** 0.06
29706 C 18.22329086727666 0.5996217734094671 101.93790930513785 C 0.0 **** -0.24
29707 H 17.978986183305864 1.2397808565362425 102.78544285685317 H 0.0 **** 0.06
29708 H 19.280036215809275 0.3314767123630986 101.97829728841853 H 0.0 **** 0.06
29709 H 18.01917926951097 1.13218498728736 101.0090188652681 H 0.0 **** 0.06
29710 H 17.61708497864865 -0.3052923606063018 101.9782626558248 H 0.0 **** 0.06
29711 C 37.11829590022197 83.39534419794848 102.32567291277942 C 0.0 **** -0.24
29712 H 37.87956926702078 82.69678929830866 101.98103632692059 H 0.0 **** 0.06
29713 H 37.5248871907581 84.40735772409028 102.3222383239754 H 0.0 **** 0.06
29714 H 36.81256754815858 83.13088309241121 103.33757064642654 H 0.0 **** 0.06
29715 H 36.2547962842272 83.34837994692722 101.66193323623463 H 0.0 **** 0.06
29716 C 101.41405456641297 54.75142814417802 108.9199268561394 C 0.0 **** -0.24
29717 H 101.10361217730724 54.21909296438446 108.01952056549476 H 0.0 **** 0.06
29718 H 102.45107443890737 55.07085666886394 108.81240558486752 H 0.0 **** 0.06
29719 H 101.32385851945727 54.090715854972814 109.7815592915436 H 0.0 **** 0.06
29720 H 100.7775488679965 55.62457736225252 109.06251189693376 H 0.0 **** 0.06
29721 C 73.62777800736345 43.877238684494216 74.43193020366655 C 0.0 **** -0.24
29722 H 72.58056808829272 43.59074162425199 74.52934886693211 H 0.0 **** 0.06
29723 H 74.08516980932748 43.30818712619268 73.62169029138019 H 0.0 **** 0.06
29724 H 74.15046322079363 43.66596840676354 75.36466360098623 H 0.0 **** 0.06
29725 H 73.69408006238913 44.94243100501072 74.21038578909912 H 0.0 **** 0.06
29726 C 83.75573388463638 8.251421161546773 19.434413040827895 C 0.0 **** -0.24
29727 H 84.03550251429658 9.300611839261592 19.344613551643608 H 0.0 **** 0.06
29728 H 83.2418714070935 7.933490310594962 18.52695233771729 H 0.0 **** 0.06
29729 H 83.09292539240542 8.124924803289673 20.290612877491274 H 0.0 **** 0.06
29730 H 84.65171763017733 7.646970672140554 19.576502155523013 H 0.0 **** 0.06
29731 C 59.03229807384317 37.117631550006635 33.52919038412972 C 0.0 **** -0.24
29732 H 59.39162908953001 37.67059744504139 32.66177787441637 H 0.0 **** 0.06
29733 H 58.74096694430502 37.81811069237985 34.31204971472641 H 0.0 **** 0.06
29734 H 59.825195693926524 36.467408442306436 33.89876154235131 H 0.0 **** 0.06
29735 H 58.17213830121907 36.51302843960695 33.2425760398375 H 0.0 **** 0.06
29736 C 88.39817866768809 13.68558101218099 35.12935267043542 C 0.0 **** -0.24
29737 H 87.56349013639553 13.626321107291886 35.82939125193178 H 0.0 **** 0.06
29738 H 88.01452070686642 13.834524618321609 34.12000736598327 H 0.0 **** 0.06
29739 H 88.97008559266243 12.758861062724662 35.168122916510725 H 0.0 **** 0.06
29740 H 89.0410563856149 14.52194994038166 35.40209572118533 H 0.0 **** 0.06
29741 C 106.62388711969135 113.6322279964395 22.948139266592236 C 0.0 **** -0.24
29742 H 107.54577002728178 113.05836439748961 22.850292026922396 H 0.0 **** 0.06
29743 H 106.7173912411331 114.56564504380415 22.392650119925793 H 0.0 **** 0.06
29744 H 106.44384011642052 113.85165081241502 24.000086137026223 H 0.0 **** 0.06
29745 H 105.79171070429442 113.05225904322057 22.549446426589967 H 0.0 **** 0.06
29746 C 23.824596405688702 3.7211422413486446 64.20797236156986 C 0.0 **** -0.24
29747 H 23.12393024832101 3.8404486854070115 63.38193819627003 H 0.0 **** 0.06
29748 H 24.153022355449338 2.6834146937032983 64.25814658049597 H 0.0 **** 0.06
29749 H 23.335350492638675 3.99375897638555 65.14263009176551 H 0.0 **** 0.06
29750 H 24.686873943790467 4.368557931828235 64.0478413137609 H 0.0 **** 0.06
29751 C 39.24039895327422 87.71905634981735 112.0328197395128 C 0.0 **** -0.24
29752 H 39.122529780460695 86.94549525668913 111.27324240337335 H 0.0 **** 0.06
29753 H 40.30225396187416 87.89058896922131 112.21435259182805 H 0.0 **** 0.06
29754 H 38.761333785499005 87.39605647037297 112.95667209092943 H 0.0 **** 0.06
29755 H 38.77691579341979 88.64263358104213 111.68565977475158 H 0.0 **** 0.06
29756 C 19.725242875734864 100.88193533370773 19.795314357731172 C 0.0 **** -0.24
29757 H 18.946368193945858 100.76756532130622 20.549736219159854 H 0.0 **** 0.06
29758 H 20.464919389630154 101.60253755724463 20.14435972215091 H 0.0 **** 0.06
29759 H 19.28115682241007 101.23771160610531 18.866064475753774 H 0.0 **** 0.06
29760 H 20.207787895156216 99.91913086450018 19.623292540871887 H 0.0 **** 0.06
29761 C 95.31597083128304 96.80960741888032 36.135195870761464 C 0.0 **** -0.24
29762 H 95.26260915795567 97.05911765163324 35.076063361438315 H 0.0 **** 0.06
29763 H 94.41690805788429 97.16541428144595 36.637532536366535 H 0.0 **** 0.06
29764 H 96.1920014730106 97.28363529593352 36.577136383919424 H 0.0 **** 0.06
29765 H 95.39224234555803 95.72822405968651 36.249139984040696 H 0.0 **** 0.06
29766 C 115.29093826618433 112.80445952524711 6.672547972568481 C 0.0 **** -0.24
29767 H 114.98437974988224 112.78670323181477 5.626632982280711 H 0.0 **** 0.06
29768 H 115.64028345062559 113.80309159023969 6.931228084045756 H 0.0 **** 0.06
29769 H 116.09658404382708 112.08514281802731 6.826278394830595 H 0.0 **** 0.06
29770 H 114.44296814511543 112.53895432956294 7.30456402146865 H 0.0 **** 0.06
29771 C 67.26655883147919 45.230890684504516 57.07526783811386 C 0.0 **** -0.24
29772 H 67.89052444384117 46.08914682285092 57.32389177943094 H 0.0 **** 0.06
29773 H 66.21799267890418 45.5294404465657 57.08691562286549 H 0.0 **** 0.06
29774 H 67.42817346997157 44.440071090369685 57.80711453622064 H 0.0 **** 0.06
29775 H 67.52924839304669 44.865647575800466 56.081983241993726 H 0.0 **** 0.06
29776 C 6.161650451639332 24.660320511605036 74.72104994548889 C 0.0 **** -0.24
29777 H 6.24794468444523 25.069405223084864 75.7277825740706 H 0.0 **** 0.06
29778 H 7.068821759214416 24.882942426271192 74.15915290901219 H 0.0 **** 0.06
29779 H 5.3035731252837195 25.10773907336062 74.22013132869236 H 0.0 **** 0.06
29780 H 6.025174458160336 23.58030653542061 74.77958801798317 H 0.0 **** 0.06
29781 C 115.80887495104841 35.44577220654247 92.9864703235468 C 0.0 **** -0.24
29782 H 115.9088607570857 34.360392979614744 93.007668543459 H 0.0 **** 0.06
29783 H 114.87341418402497 35.71431231733919 92.49560380982678 H 0.0 **** 0.06
29784 H 116.64545196888477 35.87752138099279 92.43739283134835 H 0.0 **** 0.06
29785 H 115.80755915055727 35.8291534826584 94.00695827113998 H 0.0 **** 0.06
29786 C 18.12698694737975 28.58592563959334 40.355245279545954 C 0.0 **** -0.24
29787 H 19.20049054044415 28.703829923774038 40.20895733820623 H 0.0 **** 0.06
29788 H 17.945964797711213 27.963885116753914 41.232064053654426 H 0.0 **** 0.06
29789 H 17.68978225087011 28.1113047139047 39.475969621082584 H 0.0 **** 0.06
29790 H 17.670785257784416 29.56475472987981 40.50436342307103 H 0.0 **** 0.06
29791 C 78.62937600370552 58.871213383144514 45.911357063437805 C 0.0 **** -0.24
29792 H 78.10761409925553 57.96212703882028 45.610807307793635 H 0.0 **** 0.06
29793 H 79.04933376551372 59.35688047001218 45.03132612896252 H 0.0 **** 0.06
29794 H 79.43180739996743 58.61781029816277 46.60438831637853 H 0.0 **** 0.06
29795 H 77.92839323137943 59.54751634687657 46.40017297972224 H 0.0 **** 0.06
29796 C 84.01280025517684 59.55709908544398 45.349282590360815 C 0.0 **** -0.24
29797 H 83.26076910176178 58.809109954012854 45.59959828904499 H 0.0 **** 0.06
29798 H 84.64171598940226 59.18437394405049 44.54089003166524 H 0.0 **** 0.06
29799 H 84.62827334698792 59.75994878035837 46.225788409219035 H 0.0 **** 0.06
29800 H 83.51866436690611 60.47543846565455 45.031636412525984 H 0.0 **** 0.06
29801 C 75.03492593230143 60.678017474954004 51.224919144749265 C 0.0 **** -0.24
29802 H 76.12280220592575 60.657205522273046 51.28541388675268 H 0.0 **** 0.06
29803 H 74.64518735926359 61.40308424451155 51.93916670265918 H 0.0 **** 0.06
29804 H 74.63933395586986 59.68946484420795 51.45811703094046 H 0.0 **** 0.06
29805 H 74.73238020814699 60.96231528882342 50.216978958644916 H 0.0 **** 0.06
29806 C 80.41612295468826 37.998513399049045 98.53392643465301 C 0.0 **** -0.24
29807 H 80.34023234906309 37.35590811667044 99.4111485519733 H 0.0 **** 0.06
29808 H 80.3503538000042 39.04230980774223 98.84231432957156 H 0.0 **** 0.06
29809 H 79.60316066681398 37.77098975877535 97.84511308955263 H 0.0 **** 0.06
29810 H 81.37130232141249 37.82540545231178 98.03896730555374 H 0.0 **** 0.06
29811 C 106.43700800949128 15.143705746767893 67.90516455784243 C 0.0 **** -0.24
29812 H 105.5105061125492 15.372128653890666 67.37904980101189 H 0.0 **** 0.06
29813 H 107.26010591914348 15.1094851277375 67.19130998007776 H 0.0 **** 0.06
29814 H 106.34479949819317 14.17676960217404 68.40026220524965 H 0.0 **** 0.06
29815 H 106.6319244432963 15.915748506746567 68.64901742388281 H 0.0 **** 0.06
29816 C 86.83216826792355 104.98837936204919 39.20160683555184 C 0.0 **** -0.24
29817 H 86.3893232965799 105.43448974662309 40.09220238692973 H 0.0 **** 0.06
29818 H 87.8902174302699 104.79577292891415 39.38114329969855 H 0.0 **** 0.06
29819 H 86.72533291213804 105.6746039679982 38.36092043568817 H 0.0 **** 0.06
29820 H 86.32523970565839 104.05131942894673 38.97350461201148 H 0.0 **** 0.06
29821 C 65.57774069366849 82.61252555705613 34.281870087544746 C 0.0 **** -0.24
29822 H 66.09319866339712 82.20091157872798 35.15046013442472 H 0.0 **** 0.06
29823 H 66.30211714121566 82.81804211372503 33.4933009293743 H 0.0 **** 0.06
29824 H 65.0746943381979 83.53729695767797 34.56333190294416 H 0.0 **** 0.06
29825 H 64.84269814829841 81.89363028247678 33.92209165805413 H 0.0 **** 0.06
29826 C 60.494263293039104 82.99348320742067 8.995993639387521 C 0.0 **** -0.24
29827 H 61.01396097892796 82.24763417979696 8.395372248564115 H 0.0 **** 0.06
29828 H 59.49017437786883 82.63799085280527 9.227394171432735 H 0.0 **** 0.06
29829 H 60.43009953367201 83.92849534411039 8.43976898617467 H 0.0 **** 0.06
29830 H 61.043155953645275 83.15942899436584 9.923616128626719 H 0.0 **** 0.06
29831 C 13.608035202790575 104.30357736031576 94.2370412951658 C 0.0 **** -0.24
29832 H 14.359033171581729 103.79635550661621 94.84305089545956 H 0.0 **** 0.06
29833 H 12.613057568972948 103.97603372548687 94.54314325897732 H 0.0 **** 0.06
29834 H 13.763403658444446 104.058970834505 93.18698807232587 H 0.0 **** 0.06
29835 H 13.695154075798285 105.38093664620772 94.37663291856575 H 0.0 **** 0.06
29836 C 29.789847679382547 98.75014540215534 67.0988684396377 C 0.0 **** -0.24
29837 H 30.43754816497261 97.89644277018641 66.89869730449075 H 0.0 **** 0.06
29838 H 30.400409282755334 99.63649306401314 67.27234449796742 H 0.0 **** 0.06
29839 H 29.184099034522546 98.54709659271913 67.98177687496019 H 0.0 **** 0.06
29840 H 29.137858264352246 98.9192044996918 66.24169727139363 H 0.0 **** 0.06
29841 C 42.14876695786231 82.57255405025742 95.06997800062021 C 0.0 **** -0.24
29842 H 41.852434295750186 81.54094555011508 94.88095312145902 H 0.0 **** 0.06
29843 H 42.66132718331801 82.97007290652388 94.1940988241534 H 0.0 **** 0.06
29844 H 42.817778160586045 82.60689339490278 95.92991543890173 H 0.0 **** 0.06
29845 H 41.26260375850292 83.17372944196251 95.27639886255383 H 0.0 **** 0.06
29846 C 48.29254083052793 56.92918369412675 15.659480265821344 C 0.0 **** -0.24
29847 H 49.32366435088983 56.675488705062264 15.904085390192037 H 0.0 **** 0.06
29848 H 47.882150486467125 56.17212707071312 14.990232417535026 H 0.0 **** 0.06
29849 H 48.26538302816355 57.90153608818645 15.167838288372252 H 0.0 **** 0.06
29850 H 47.70114437574859 56.967180627483 16.573296947296228 H 0.0 **** 0.06
29851 C 52.135880378123915 79.0699525460789 95.67469776413017 C 0.0 **** -0.24
29852 H 52.39206300507212 78.01474834159356 95.58580990014414 H 0.0 **** 0.06
29853 H 52.992887392915065 79.61963954024313 96.06498074245522 H 0.0 **** 0.06
29854 H 51.291566098054346 79.18323242283273 96.35445479106227 H 0.0 **** 0.06
29855 H 51.868396528687754 79.46244184247357 94.69356366596284 H 0.0 **** 0.06
29856 C 58.01816994516344 71.8573664796528 98.07127539633066 C 0.0 **** -0.24
29857 H 58.19848592889512 71.28195215422477 98.97881218276774 H 0.0 **** 0.06
29858 H 56.94988262047777 72.05097960336457 97.97005400412192 H 0.0 **** 0.06
29859 H 58.36867372797398 71.29206051523238 97.20779996017598 H 0.0 **** 0.06
29860 H 58.55504283165191 72.80373411851997 98.12811996464652 H 0.0 **** 0.06
29861 C 2.71305799251739 61.775619850854554 12.396543970784705 C 0.0 **** -0.24
29862 H 3.4845618975620294 61.54433561798015 11.661093098899414 H 0.0 **** 0.06
29863 H 1.7679022076698097 61.95860494020886 11.885414274935926 H 0.0 **** 0.06
29864 H 3.001707932715245 62.664487149390055 12.95821269175147 H 0.0 **** 0.06
29865 H 2.599657615023842 60.93405427548916 13.079889639611196 H 0.0 **** 0.06
29866 C 102.32518172862112 46.080140918133196 50.019299509908436 C 0.0 **** -0.24
29867 H 101.9029552867988 45.31548364702712 50.67222196162617 H 0.0 **** 0.06
29868 H 103.02439439959343 45.61669396513631 49.32330085234601 H 0.0 **** 0.06
29869 H 102.84868119090359 46.82297531747329 50.6203859281176 H 0.0 **** 0.06
29870 H 101.52305773442973 46.562707583447605 49.461191939187174 H 0.0 **** 0.06
29871 C 47.81904846909731 44.16545789206839 96.0708238328454 C 0.0 **** -0.24
29872 H 48.30393267023959 43.95788521233635 95.11764473943708 H 0.0 **** 0.06
29873 H 47.474908414286176 45.20076415162066 96.08458174280787 H 0.0 **** 0.06
29874 H 48.52972216808797 44.00771171946235 96.882041191305 H 0.0 **** 0.06
29875 H 46.967614320893745 43.497031198683885 96.19827660375012 H 0.0 **** 0.06
29876 C 36.81800389001092 111.80576087754773 16.21001974654527 C 0.0 **** -0.24
29877 H 37.60380558401264 111.07363810692311 16.39301824306699 H 0.0 **** 0.06
29878 H 37.100261538867386 112.43819715200468 15.368429860159353 H 0.0 **** 0.06
29879 H 36.68083714317183 112.42223968911989 17.09853971869397 H 0.0 **** 0.06
29880 H 35.8858459859957 111.28867780801926 15.979530294551779 H 0.0 **** 0.06
29881 C 21.691997715948673 5.7551194412061495 101.5396566947328 C 0.0 **** -0.24
29882 H 21.270463090755413 6.146509458687747 102.46527106156961 H 0.0 **** 0.06
29883 H 21.47705603528459 6.443474855529319 100.72245999163925 H 0.0 **** 0.06
29884 H 21.24935117307922 4.782278680675994 101.32145364439603 H 0.0 **** 0.06
29885 H 22.771084409720117 5.645987952648163 101.64924140647244 H 0.0 **** 0.06
29886 C 48.874126485209615 66.16238001304873 55.94134023619039 C 0.0 **** -0.24
29887 H 49.1383425106155 66.54746572827037 54.95589286682661 H 0.0 **** 0.06
29888 H 48.68154560579512 65.09170097689628 55.87211174980475 H 0.0 **** 0.06
29889 H 47.98081474085541 66.67053732403326 56.30261681272014 H 0.0 **** 0.06
29890 H 49.698361739670304 66.33976714022253 56.63317381541547 H 0.0 **** 0.06
29891 C 111.78163306673451 77.85783047302715 34.79282320917764 C 0.0 **** -0.24
29892 H 112.09126339604113 76.91018705028216 35.234944963881105 H 0.0 **** 0.06
29893 H 111.7461592019644 78.62486071018526 35.5663901315577 H 0.0 **** 0.06
29894 H 110.79263143441182 77.74415068352386 34.34687326547096 H 0.0 **** 0.06
29895 H 112.49573233074412 78.1500254765977 34.022878476162724 H 0.0 **** 0.06
29896 C 25.99463281104019 45.663343618049154 97.71176759235442 C 0.0 **** -0.24
29897 H 25.648392204943093 46.463534542742536 98.36587040706206 H 0.0 **** 0.06
29898 H 25.153796759623873 45.27713471408265 97.13394573412299 H 0.0 **** 0.06
29899 H 26.421764583932514 44.861491141242595 98.31273309338175 H 0.0 **** 0.06
29900 H 26.75391568827436 46.05236067797634 97.03271909749625 H 0.0 **** 0.06
29901 C 9.318274564338608 28.784306851011443 20.950142382101546 C 0.0 **** -0.24
29902 H 8.331675457779653 29.165351673602075 20.688940278281564 H 0.0 **** 0.06
29903 H 9.874357933445083 28.562065050626195 20.039329314710287 H 0.0 **** 0.06
29904 H 9.212305024094903 27.87587219782519 21.543259163600936 H 0.0 **** 0.06
29905 H 9.855950518764757 29.53607269437188 21.52920743852394 H 0.0 **** 0.06
29906 C 14.45145578275168 74.07635622321416 12.740335691564837 C 0.0 **** -0.24
29907 H 13.923268716177688 73.12761431913046 12.836968039019212 H 0.0 **** 0.06
29908 H 13.780632219046083 74.82364494053215 12.317202317198849 H 0.0 **** 0.06
29909 H 15.312016065671429 73.94709626837789 12.083447213879367 H 0.0 **** 0.06
29910 H 14.791288526173616 74.40530342239956 13.722739914546935 H 0.0 **** 0.06
29911 C 51.77386422257183 25.5419269780229 23.862936932003628 C 0.0 **** -0.24
29912 H 52.80993076308701 25.376029034431156 24.156343651681247 H 0.0 **** 0.06
29913 H 51.30472748202169 24.586413139892073 23.631043592533217 H 0.0 **** 0.06
29914 H 51.74396184804549 26.185041080484268 22.984167003145636 H 0.0 **** 0.06
29915 H 51.23701261044239 26.02144710574973 24.682308914600192 H 0.0 **** 0.06
29916 C 13.125169026449264 40.998364482462335 106.04661111069655 C 0.0 **** -0.24
29917 H 12.689747861679667 40.00354185857859 105.95925062289561 H 0.0 **** 0.06
29918 H 12.678977276255363 41.65676096092608 105.30025284719193 H 0.0 **** 0.06
29919 H 14.200979859330111 40.93971963388794 105.88338622092505 H 0.0 **** 0.06
29920 H 12.929286557773295 41.393635395269655 107.04390474732296 H 0.0 **** 0.06
29921 C 41.01162907214453 2.9860464738722357 42.04000607483988 C 0.0 **** -0.24
29922 H 40.01167487252596 2.933749073652706 42.47135417681325 H 0.0 **** 0.06
29923 H 41.17708462142215 3.9817057750207425 41.626157435085865 H 0.0 **** 0.06
29924 H 41.10497680489999 2.2429535511699186 41.24807825287467 H 0.0 **** 0.06
29925 H 41.75209226452489 2.7869413350741894 42.81484992097996 H 0.0 **** 0.06
29926 C 75.32266453104944 113.71473605199483 52.72304645319426 C 0.0 **** -0.24
29927 H 74.45444809473614 114.23664309312304 53.12632287364616 H 0.0 **** 0.06
29928 H 75.4191335239833 113.9378230982453 51.660993530948105 H 0.0 **** 0.06
29929 H 75.19630156890716 112.64099035024657 52.85931494463969 H 0.0 **** 0.06
29930 H 76.21952808738331 114.04410612486384 53.24730465466945 H 0.0 **** 0.06
29931 C 80.20593200066867 55.08517013747206 101.3537779164925 C 0.0 **** -0.24
29932 H 80.41410190746103 55.230671978836085 100.2934387652902 H 0.0 **** 0.06
29933 H 81.14180366217846 54.92653619038708 101.88893306481756 H 0.0 **** 0.06
29934 H 79.56195461848998 54.21482907976099 101.48148918312185 H 0.0 **** 0.06
29935 H 79.7055307108366 55.96876718027039 101.74928310370012 H 0.0 **** 0.06
29936 C 110.00752749617749 62.29087643845736 86.06587143717792 C 0.0 **** -0.24
29937 H 109.33449279142383 63.14847491854459 86.05045272475178 H 0.0 **** 0.06
29938 H 111.03920238475658 62.64067624253005 86.08006724665955 H 0.0 **** 0.06
29939 H 109.84076966903439 61.68230595732581 85.17655404648906 H 0.0 **** 0.06
29940 H 109.81274608472631 61.693655328388104 86.95653282303368 H 0.0 **** 0.06
29941 C 110.85665303344506 19.32036168121917 45.33124055653943 C 0.0 **** -0.24
29942 H 111.77470758415633 18.797304877392463 45.601205481779516 H 0.0 **** 0.06
29943 H 110.20439309183591 18.64498371233549 44.77743540375303 H 0.0 **** 0.06
29944 H 111.09956584986332 20.182364752736675 44.70996796450062 H 0.0 **** 0.06
29945 H 110.34994493163747 19.654570908253447 46.23660604256597 H 0.0 **** 0.06
29946 C 19.438301396375273 109.45456632108096 57.00595609428738 C 0.0 **** -0.24
29947 H 18.46716981633663 109.01418884459993 56.77797637051841 H 0.0 **** 0.06
29948 H 20.229172053846124 108.81382170376352 56.615124228386996 H 0.0 **** 0.06
29949 H 19.548223224317287 109.55076526821827 58.086055402081804 H 0.0 **** 0.06
29950 H 19.507260750520153 110.4391915634818 56.54458070419469 H 0.0 **** 0.06
29951 C 92.46949812358346 105.45899890460998 29.992877060419346 C 0.0 **** -0.24
29952 H 91.46703490237215 105.75237144953272 29.681663958749994 H 0.0 **** 0.06
29953 H 93.05363493301985 105.17571863841292 29.11615580195263 H 0.0 **** 0.06
29954 H 92.40395718474056 104.61205780754713 30.6753619986967 H 0.0 **** 0.06
29955 H 92.95269400605196 106.29537593663923 30.496246376272268 H 0.0 **** 0.06
29956 C 63.499661734053895 108.94864881428563 102.40812190185028 C 0.0 **** -0.24
29957 H 62.48317875211132 109.27915917128678 102.19598094865276 H 0.0 **** 0.06
29958 H 64.0350229583702 109.73634803055504 102.93926118407919 H 0.0 **** 0.06
29959 H 64.01285433973948 108.72793867600305 101.47210109005414 H 0.0 **** 0.06
29960 H 63.468372707842725 108.05135643289086 103.02573255292947 H 0.0 **** 0.06
29961 C 25.166923109157402 25.222367907770916 72.46961187196291 C 0.0 **** -0.24
29962 H 24.5433975660139 26.032172190896645 72.84636828690486 H 0.0 **** 0.06
29963 H 26.21286032861486 25.43457887736411 72.69362408324952 H 0.0 **** 0.06
29964 H 25.036661477689982 25.135738311587993 71.39097440754404 H 0.0 **** 0.06
29965 H 24.87553481537448 24.286781491737585 72.94630616851578 H 0.0 **** 0.06
29966 C 63.258118878717376 100.17167347771627 54.87136537113963 C 0.0 **** -0.24
29967 H 63.937766595568 101.01344427353271 55.00270636567941 H 0.0 **** 0.06
29968 H 62.670129927792836 100.31702035319103 53.9640886988055 H 0.0 **** 0.06
29969 H 62.58978134968137 100.1062549750155 55.73070291419295 H 0.0 **** 0.06
29970 H 63.83375934115056 99.24918167367346 54.78742149309318 H 0.0 **** 0.06
29971 C 17.258214204287512 74.03218279649661 44.68893139278987 C 0.0 **** -0.24
29972 H 17.399209170406298 74.2539364642306 45.74678029474583 H 0.0 **** 0.06
29973 H 18.17953593385078 74.24509984222112 44.146809479177676 H 0.0 **** 0.06
29974 H 16.45234241694473 74.65138113071421 44.29417870126866 H 0.0 **** 0.06
29975 H 16.999889180337636 72.98001015765038 44.569217187567034 H 0.0 **** 0.06
29976 C 82.96356000678622 31.318652390202658 10.4339193403124 C 0.0 **** -0.24
29977 H 82.634375066665 32.32067569486077 10.707848351496057 H 0.0 **** 0.06
29978 H 82.58217210288515 31.06957867583278 9.442977767736018 H 0.0 **** 0.06
29979 H 82.58411278365048 30.600443065724406 11.160366658994334 H 0.0 **** 0.06
29980 H 84.05312891189669 31.28480415532185 10.424512728838408 H 0.0 **** 0.06
29981 C 23.89945215770011 11.605593831093671 48.88459310294641 C 0.0 **** -0.24
29982 H 24.964315410856187 11.394867823208614 48.79034174022216 H 0.0 **** 0.06
29983 H 23.333620308891312 10.682139650462915 48.757363688149226 H 0.0 **** 0.06
29984 H 23.601351973422737 12.322544522452034 48.11976727951962 H 0.0 **** 0.06
29985 H 23.69699694454485 12.021304314416653 49.872070341924 H 0.0 **** 0.06
29986 C 67.24735433296195 85.12152624165657 105.95169997514623 C 0.0 **** -0.24
29987 H 66.71078981611592 85.48029133777862 106.82929704525677 H 0.0 **** 0.06
29988 H 67.99090755016925 84.38440022783982 106.25681059995517 H 0.0 **** 0.06
29989 H 67.74467083435292 85.95878906219195 105.46203392956235 H 0.0 **** 0.06
29990 H 66.54294840000964 84.66146707209748 105.25785166349908 H 0.0 **** 0.06
29991 C 71.35195508836927 36.29139403013687 118.29716878591674 C 0.0 **** -0.24
29992 H 71.50471878091383 37.255436003898325 117.81130467341012 H 0.0 **** 0.06
29993 H 71.97509284328783 36.23126439546361 119.18913532148669 H 0.0 **** 0.06
29994 H 71.62436875710745 35.49121073129649 117.60830079743417 H 0.0 **** 0.06
29995 H 70.3036287302495 36.18867564124234 118.57729258565203 H 0.0 **** 0.06
29996 C 32.68980432458339 89.9047263500614 57.81288795692632 C 0.0 **** -0.24
29997 H 31.99519670816251 89.49676147461017 57.07877320197662 H 0.0 **** 0.06
29998 H 33.43683370966808 90.51558318656038 57.30515904877336 H 0.0 **** 0.06
29999 H 33.184669469319175 89.0875077932175 58.33766494730003 H 0.0 **** 0.06
30000 H 32.14298048139061 90.51794227064539 58.52870877965171 H 0.0 **** 0.06
30001 C 99.55546123375956 102.05961282667087 59.584772516123046 C 0.0 **** -0.24
30002 H 99.13721817628942 102.99570247583884 59.9569224530892 H 0.0 **** 0.06
30003 H 100.3099027153637 102.27501745292327 58.828240655291175 H 0.0 **** 0.06
30004 H 98.76120787797794 101.4570897120079 59.144956616026995 H 0.0 **** 0.06
30005 H 100.0129385563007 101.51380088376715 60.40979880518075 H 0.0 **** 0.06
30006 C 94.21846122866435 112.06823514146964 73.98357458724158 C 0.0 **** -0.24
30007 H 94.37726374628738 111.23713515114787 73.29670843293735 H 0.0 **** 0.06
30008 H 94.2133490370748 111.6968785262398 75.0079005337875 H 0.0 **** 0.06
30009 H 93.26202970965079 112.54291016396445 73.7631750093123 H 0.0 **** 0.06
30010 H 95.02167646400562 112.79583395915193 73.86411807745341 H 0.0 **** 0.06
30011 C 110.77479218672364 58.366102256192164 2.095775718787527 C 0.0 **** -0.24
30012 H 110.34605588890574 57.952815455819064 1.1825907420789878 H 0.0 **** 0.06
30013 H 111.63398515696586 58.98864067253646 1.8430624053923168 H 0.0 **** 0.06
30014 H 111.09389868961621 57.55284977661307 2.746850948874549 H 0.0 **** 0.06
30015 H 110.02623241671492 58.96951717103161 2.6073352616021825 H 0.0 **** 0.06
30016 C 55.51348951583743 105.87884081960811 93.76717338215394 C 0.0 **** -0.24
30017 H 55.62165039374856 105.85579219698295 92.682116406164 H 0.0 **** 0.06
30018 H 56.44033620599409 106.23844917988447 94.21565046173114 H 0.0 **** 0.06
30019 H 55.29801579000175 104.8751742303883 94.13198970307224 H 0.0 **** 0.06
30020 H 54.695951420472035 106.54752620496711 94.03619359377697 H 0.0 **** 0.06
30021 C 12.029463285171602 57.632427070146036 95.43938012146529 C 0.0 **** -0.24
30022 H 12.468352256698637 56.64072642469608 95.55058214761533 H 0.0 **** 0.06
30023 H 10.975264810167289 57.596294183466625 95.71438297350642 H 0.0 **** 0.06
30024 H 12.122884056478284 57.95633118250555 94.40282898747984 H 0.0 **** 0.06
30025 H 12.551434730582542 58.33452250026687 96.08844968885629 H 0.0 **** 0.06
30026 C 97.79256152449656 89.77379092000655 66.8920081630508 C 0.0 **** -0.24
30027 H 98.33041820001571 88.82733525721824 66.95555738017597 H 0.0 **** 0.06
30028 H 96.74329629907265 89.58057504389711 66.67145292559658 H 0.0 **** 0.06
30029 H 98.22523782008301 90.3837992211399 66.09860491986419 H 0.0 **** 0.06
30030 H 97.87413152624958 90.30147667567724 67.84261096407235 H 0.0 **** 0.06
30031 C 44.72731705770076 4.391299960238143 41.4942848661336 C 0.0 **** -0.24
30032 H 43.693084347629764 4.232343359421748 41.190149980410915 H 0.0 **** 0.06
30033 H 44.74720768510801 4.893115964497156 42.46302155900947 H 0.0 **** 0.06
30034 H 45.23223852683827 5.01081904773082 40.75338071901255 H 0.0 **** 0.06
30035 H 45.23528841103226 3.430452109295345 41.57183505923852 H 0.0 **** 0.06
30036 C 89.16818571232096 49.47390152657641 92.48505772589473 C 0.0 **** -0.24
30037 H 88.92656333319093 48.45925884873249 92.79999957916019 H 0.0 **** 0.06
30038 H 90.12927959584493 49.76694291281015 92.90840852973076 H 0.0 **** 0.06
30039 H 88.39269008681998 50.15633052604966 92.83461864275293 H 0.0 **** 0.06
30040 H 89.2219995353567 49.512807646844806 91.39699432399615 H 0.0 **** 0.06
30041 C 32.282017556997396 75.35342731990897 13.824366259480183 C 0.0 **** -0.24
30042 H 32.151232400468146 75.77875711119202 12.828904341273589 H 0.0 **** 0.06
30043 H 32.54538522788408 76.14575621308245 14.525462542615145 H 0.0 **** 0.06
30044 H 33.07841914623346 74.61033372079476 13.798931606240714 H 0.0 **** 0.06
30045 H 31.35300683867633 74.88064703592426 14.14155611461782 H 0.0 **** 0.06
30046 C 103.77939550620385 16.232217806313372 87.73294271236642 C 0.0 **** -0.24
30047 H 104.38854714867031 16.400740287426316 88.62100634760858 H 0.0 **** 0.06
30048 H 104.02577945484722 15.26125004156681 87.3017928621635 H 0.0 **** 0.06
30049 H 103.97971482615159 17.01608470931012 87.00139468700291 H 0.0 **** 0.06
30050 H 102.72527945601857 16.25239679964605 88.00693293932528 H 0.0 **** 0.06
30051 C 89.89579717128044 14.777738960947133 88.28118347065276 C 0.0 **** -0.24
30052 H 89.56932482170009 15.397354999371117 87.44472219808375 H 0.0 **** 0.06
30053 H 89.59417347548356 15.245822679429168 89.21885527806606 H 0.0 **** 0.06
30054 H 90.98159190413787 14.679154926308144 88.257212190811 H 0.0 **** 0.06
30055 H 89.4387028651089 13.791426405805012 88.20306245359077 H 0.0 **** 0.06
30056 C 68.06035754594149 91.8276144101134 111.56409885976694 C 0.0 **** -0.24
30057 H 67.67685850484068 92.78806848769057 111.21921041063067 H 0.0 **** 0.06
30058 H 68.06605325178995 91.80914481821978 112.65445342105835 H 0.0 **** 0.06
30059 H 69.07537363117152 91.687808389584 111.19317952819819 H 0.0 **** 0.06
30060 H 67.42242705691308 91.02657774934164 111.18997781445509 H 0.0 **** 0.06
30061 C 117.88738994639702 18.441394173762546 40.393715200332736 C 0.0 **** -0.24
30062 H 118.36636108329469 18.630143261017395 41.35429522348039 H 0.0 **** 0.06
30063 H 117.7810341284167 19.381056876090128 39.85026409515268 H 0.0 **** 0.06
30064 H 116.90224110029271 18.00457116525334 40.55854542465221 H 0.0 **** 0.06
30065 H 118.49881400457865 17.75197186782856 39.81203140391398 H 0.0 **** 0.06
30066 C 14.249338410828415 104.5194640686795 117.35481890882255 C 0.0 **** -0.24
30067 H 14.047162547368629 103.45075195396353 117.44169266589974 H 0.0 **** 0.06
30068 H 15.325673317245474 104.68881678349499 117.38835110372216 H 0.0 **** 0.06
30069 H 13.772070695922707 105.046934713301 118.18053544608624 H 0.0 **** 0.06
30070 H 13.851874720871677 104.8880140398714 116.4099316053684 H 0.0 **** 0.06
30071 C 48.09168364607552 112.59125917746377 10.963586360294716 C 0.0 **** -0.24
30072 H 48.02651700105599 111.91769878662909 10.10989836332761 H 0.0 **** 0.06
30073 H 48.53046409724044 113.53803761565933 10.647022094988145 H 0.0 **** 0.06
30074 H 48.71766148126113 112.14109468867707 11.734939932225299 H 0.0 **** 0.06
30075 H 47.093498733506806 112.76850681603615 11.363449711274495 H 0.0 **** 0.06
30076 C 44.26248838160902 8.675442388360409 45.90937978487155 C 0.0 **** -0.24
30077 H 44.264609479330005 8.244632773610022 46.910114058082385 H 0.0 **** 0.06
30078 H 45.238092846033055 9.114104267315042 45.700441417520736 H 0.0 **** 0.06
30079 H 43.49569217254714 9.447855768575309 45.847551540992164 H 0.0 **** 0.06
30080 H 44.05124100531171 7.893977126220122 45.17820383723211 H 0.0 **** 0.06
30081 C 49.609441076576175 3.0068286301070657 47.26922033884162 C 0.0 **** -0.24
30082 H 49.43948051763755 3.7137969218624676 48.079780436127095 H 0.0 **** 0.06
30083 H 49.632655773438046 1.9929914938597904 47.669834810295896 H 0.0 **** 0.06
30084 H 50.561138075395235 3.2293574331255286 46.78624068328813 H 0.0 **** 0.06
30085 H 48.80387872387871 3.090585453463177 46.53872615989579 H 0.0 **** 0.06
30086 C 69.13755464779877 35.041077924411695 43.22379977523451 C 0.0 **** -0.24
30087 H 69.91192962013832 34.28486123497905 43.34882071075174 H 0.0 **** 0.06
30088 H 68.18542023323931 34.64756936565564 43.58010954976436 H 0.0 **** 0.06
30089 H 69.05149220361699 35.301570106212495 42.168784296241256 H 0.0 **** 0.06
30090 H 69.4017770776016 35.92898188177773 43.797755009166565 H 0.0 **** 0.06
30091 C 116.54104360720692 26.31540084813426 47.46274526464754 C 0.0 **** -0.24
30092 H 117.06998667781447 27.184322926407987 47.85558146350991 H 0.0 **** 0.06
30093 H 116.0270395043921 26.59008997507128 46.54059324504442 H 0.0 **** 0.06
30094 H 115.81204039491749 25.97197387508146 48.19669062882383 H 0.0 **** 0.06
30095 H 117.25465507705731 25.518341577534756 47.25710070667003 H 0.0 **** 0.06
30096 C 50.980552713872015 29.199016247364447 74.8274508014089 C 0.0 **** -0.24
30097 H 50.407572601272705 28.4102837927338 75.31484126719519 H 0.0 **** 0.06
30098 H 50.45802379801344 29.524668610126 73.92794557885964 H 0.0 **** 0.06
30099 H 51.96604145643249 28.8201614864159 74.55905650436694 H 0.0 **** 0.06
30100 H 51.08865187699729 30.04256674233764 75.51012771864606 H 0.0 **** 0.06
30101 C 70.3133211246114 52.83004819582402 67.65565749129348 C 0.0 **** -0.24
30102 H 70.67610781047281 51.80303773284277 67.68103138840104 H 0.0 **** 0.06
30103 H 69.52087577677219 52.91737420190162 66.91163116708216 H 0.0 **** 0.06
30104 H 71.1332617715552 53.49876078368425 67.39310769096963 H 0.0 **** 0.06
30105 H 69.92326446553793 53.101821144946825 68.63630514004566 H 0.0 **** 0.06
30106 C 57.65994617388392 81.88877018644453 34.73105143220056 C 0.0 **** -0.24
30107 H 58.72116619018973 81.87782409132163 34.48575215747374 H 0.0 **** 0.06
30108 H 57.07692692001246 82.0201661481957 33.818897232279284 H 0.0 **** 0.06
30109 H 57.453763448846836 82.71208562932381 35.415602369246784 H 0.0 **** 0.06
30110 H 57.38693805384221 80.94541989885568 35.20487462732859 H 0.0 **** 0.06
30111 C 20.053145371278692 55.76257760967929 88.44922671575131 C 0.0 **** -0.24
30112 H 19.812631466618825 54.936916874191034 89.1189751626429 H 0.0 **** 0.06
30113 H 20.491092797346408 55.3708108906685 87.5316536083655 H 0.0 **** 0.06
30114 H 20.765710999990343 56.42930623216045 88.93614746095187 H 0.0 **** 0.06
30115 H 19.143648014719428 56.31464285760581 88.21182810080305 H 0.0 **** 0.06
30116 C 54.46977773769353 7.564195113905157 116.55581188353563 C 0.0 **** -0.24
30117 H 54.0729124451815 7.587785600413895 117.57126304534125 H 0.0 **** 0.06
30118 H 54.095890537509305 6.679202263519329 116.04072004854487 H 0.0 **** 0.06
30119 H 55.55904741336362 7.530870574177271 116.5919320444159 H 0.0 **** 0.06
30120 H 54.15045239702509 8.458286778170134 116.02030371928726 H 0.0 **** 0.06
30121 C 98.78765471182447 66.49867315025836 76.52230965556328 C 0.0 **** -0.24
30122 H 99.16563487541782 65.53866056746531 76.1716155302114 H 0.0 **** 0.06
30123 H 97.75981054680594 66.62998400708423 76.18213105815278 H 0.0 **** 0.06
30124 H 99.40717499715942 67.30107514731131 76.1225782687687 H 0.0 **** 0.06
30125 H 98.81671218231094 66.52561774474964 77.61093132420416 H 0.0 **** 0.06
30126 C 106.89279513276418 105.9801635367455 50.88264963033589 C 0.0 **** -0.24
30127 H 107.07745209894853 107.03726369805511 50.690549021150275 H 0.0 **** 0.06
30128 H 107.84166789435497 105.46842531801778 51.04234003580987 H 0.0 **** 0.06
30129 H 106.38207230516213 105.5400754273482 50.025959932787345 H 0.0 **** 0.06
30130 H 106.26902385751953 105.87622285837352 51.77023527542269 H 0.0 **** 0.06
30131 C 63.35726034784178 100.46444929699283 117.4331527919571 C 0.0 **** -0.24
30132 H 63.857826452830984 101.02483585758802 116.64376123819385 H 0.0 **** 0.06
30133 H 62.98565785671058 101.15627500028026 118.1898842022609 H 0.0 **** 0.06
30134 H 64.06266447086813 99.76985164286839 117.88928182198357 H 0.0 **** 0.06
30135 H 62.522283236217696 99.90740653610595 117.00816672808676 H 0.0 **** 0.06
30136 C 1.0339955968651395 37.08178169356975 11.460579899896857 C 0.0 **** -0.24
30137 H 1.7795208003804248 36.6100127309831 10.819982660334631 H 0.0 **** 0.06
30138 H 1.0765010345875226 36.637455431583305 12.454698099521408 H 0.0 **** 0.06
30139 H 0.04230610781880273 36.92816092042747 11.035431494277475 H 0.0 **** 0.06
30140 H 1.2381748843740752 38.15019909957502 11.530462898584062 H 0.0 **** 0.06
30141 C 84.66827323992933 3.0341367249169213 38.930164551054254 C 0.0 **** -0.24
30142 H 84.07142546220126 3.936442977808756 38.79963223466604 H 0.0 **** 0.06
30143 H 84.04256814962477 2.241120448504354 39.34050213518969 H 0.0 **** 0.06
30144 H 85.49126817613563 3.2397009425113623 39.61497056889128 H 0.0 **** 0.06
30145 H 85.06736733605118 2.7201437630836214 37.965345433745924 H 0.0 **** 0.06
30146 C 43.04816951583378 93.72435408119253 94.67519274976266 C 0.0 **** -0.24
30147 H 43.19654561460982 92.74566246653364 95.1309687864331 H 0.0 **** 0.06
30148 H 43.981545335372886 94.28714036680788 94.71209551974846 H 0.0 **** 0.06
30149 H 42.27480766717886 94.2654312990943 95.22060312516726 H 0.0 **** 0.06
30150 H 42.74066889316224 93.59810550471354 93.63688053196776 H 0.0 **** 0.06
30151 C 103.8867582987576 40.199294508182646 74.3705431233924 C 0.0 **** -0.24
30152 H 104.54771022323382 39.363425295977095 74.13986624861298 H 0.0 **** 0.06
30153 H 104.38604970697111 41.13617971703587 74.12414356129784 H 0.0 **** 0.06
30154 H 103.64310519134244 40.18599087439034 75.43296100536446 H 0.0 **** 0.06
30155 H 102.97094324318877 40.10918855368524 73.78683580130212 H 0.0 **** 0.06
30156 C 76.09712539405666 19.5157630566502 2.5009337634839426 C 0.0 **** -0.24
30157 H 75.66173150907935 18.70944029423913 3.0915896413151813 H 0.0 **** 0.06
30158 H 75.33420145604737 19.94198391346407 1.8495679607783018 H 0.0 **** 0.06
30159 H 76.91310668864054 19.121100196619977 1.8954890297004567 H 0.0 **** 0.06
30160 H 76.48029664813407 20.288465517593465 3.167312977767608 H 0.0 **** 0.06
30161 C 1.7076351790859974 115.60049787404496 96.09642413199788 C 0.0 **** -0.24
30162 H 1.3420785877482615 116.3337493724112 96.81496512450951 H 0.0 **** 0.06
30163 H 2.5987725354360975 115.11529001786958 96.49484869059631 H 0.0 **** 0.06
30164 H 1.9541061515752745 116.10081647654668 95.16007328516366 H 0.0 **** 0.06
30165 H 0.9365157000668773 114.85214358082388 95.91617121419739 H 0.0 **** 0.06
30166 C 24.121967223192286 35.021870591712855 10.31715714444168 C 0.0 **** -0.24
30167 H 23.079689740523037 35.23723809722168 10.083308870133713 H 0.0 **** 0.06
30168 H 24.611450211437273 34.60005356447289 9.439059543459571 H 0.0 **** 0.06
30169 H 24.169942426295762 34.30766291882321 11.139038727321097 H 0.0 **** 0.06
30170 H 24.626857611821265 35.94388609739383 10.606834069644762 H 0.0 **** 0.06
30171 C 58.28813246358583 79.46324818549894 90.0584786588202 C 0.0 **** -0.24
30172 H 57.42829603596616 78.83201612170197 89.83441179080916 H 0.0 **** 0.06
30173 H 59.20494754367528 78.88986232439419 89.91802799925614 H 0.0 **** 0.06
30174 H 58.22769587581835 79.8043699437763 91.09196350844803 H 0.0 **** 0.06
30175 H 58.29033880936287 80.32431213339808 89.39023127024586 H 0.0 **** 0.06
30176 C 60.289633303871646 0.6195364611312169 61.885960940622205 C 0.0 **** -0.24
30177 H 59.49194594175649 0.7459098786115828 61.15452594535579 H 0.0 **** 0.06
30178 H 61.25190488045883 0.8050984508261863 61.40958012093922 H 0.0 **** 0.06
30179 H 60.266184287884734 -0.39795161014847835 62.276261775143915 H 0.0 **** 0.06
30180 H 60.14690787902129 1.3261563327533974 62.704630278452974 H 0.0 **** 0.06
30181 C 32.67142095767815 75.66183871271281 60.62401949727547 C 0.0 **** -0.24
30182 H 32.92943173766676 76.67354650013118 60.93757392507064 H 0.0 **** 0.06
30183 H 33.48833704935183 74.98456092992174 60.87440622071671 H 0.0 **** 0.06
30184 H 32.503367778249725 75.64730936661584 59.546477070729736 H 0.0 **** 0.06
30185 H 31.76374181578157 75.3425108982081 61.13746859137245 H 0.0 **** 0.06
30186 C 7.203276115605092 46.15668213720633 22.35407415116529 C 0.0 **** -0.24
30187 H 7.528898980527799 46.52726082562836 23.325524455893976 H 0.0 **** 0.06
30188 H 6.573293965926112 45.27718428748955 22.494593587334936 H 0.0 **** 0.06
30189 H 8.074911193279746 45.887195700715154 21.757627236395574 H 0.0 **** 0.06
30190 H 6.635524744475816 46.93210566439751 21.840521564005144 H 0.0 **** 0.06
30191 C 45.64341126440688 72.12364854537597 25.44544255413271 C 0.0 **** -0.24
30192 H 46.2296650470623 71.42906809912327 24.843257272111657 H 0.0 **** 0.06
30193 H 45.687231117002995 71.82239442813699 26.491907712053575 H 0.0 **** 0.06
30194 H 44.60663748938174 72.11174450992198 25.106669617655797 H 0.0 **** 0.06
30195 H 46.04950935033432 73.12984880005834 25.33842852450522 H 0.0 **** 0.06
30196 C 38.83846822628989 24.275766494642312 100.72905895314025 C 0.0 **** -0.24
30197 H 38.038934832314055 24.941994863127206 100.4059031866152 H 0.0 **** 0.06
30198 H 39.299334562067116 24.67295026729454 101.63391136532317 H 0.0 **** 0.06
30199 H 39.589005534010155 24.200487728203314 99.9417658264575 H 0.0 **** 0.06
30200 H 38.42659797676822 23.287633119944076 100.93465543416511 H 0.0 **** 0.06
30201 C 13.486673239732227 14.904684593202361 57.82701813967671 C 0.0 **** -0.24
30202 H 13.751945196883298 15.961759516944397 57.808607155634945 H 0.0 **** 0.06
30203 H 13.779341621465221 14.441853826399523 56.88432015258772 H 0.0 **** 0.06
30204 H 12.409747907746379 14.802941932267373 57.96348376530338 H 0.0 **** 0.06
30205 H 14.005335286539179 14.414033915626746 58.65044885596038 H 0.0 **** 0.06
30206 C 98.64598836952206 1.2492342084223083 20.41288174748641 C 0.0 **** -0.24
30207 H 98.44345806152387 1.416632809808391 21.47048598371802 H 0.0 **** 0.06
30208 H 97.92186680599775 1.8013825783660025 19.812066608884294 H 0.0 **** 0.06
30209 H 98.5659060668167 0.18492428404368866 20.191195502432578 H 0.0 **** 0.06
30210 H 99.65255160894503 1.5950929751026592 20.17690134668183 H 0.0 **** 0.06
30211 C 41.60282356748769 112.69237203192677 31.6600326917722 C 0.0 **** -0.24
30212 H 40.8332548499628 112.57957342452052 32.42250493928558 H 0.0 **** 0.06
30213 H 41.47788274425466 111.9187783537385 30.900433880925227 H 0.0 **** 0.06
30214 H 42.58656142429919 112.59494519778033 32.11910393137663 H 0.0 **** 0.06
30215 H 41.51388886301656 113.67475461426497 31.19612574541847 H 0.0 **** 0.06
30216 C 32.92741673327089 93.99534910482402 67.55516431114165 C 0.0 **** -0.24
30217 H 33.388243255762774 93.08345057627852 67.93305646271676 H 0.0 **** 0.06
30218 H 33.43522061631407 94.86169158799936 67.97989072739665 H 0.0 **** 0.06
30219 H 31.875420487464254 94.01524224858522 67.8397670696759 H 0.0 **** 0.06
30220 H 33.01100897620108 94.02052379396744 66.46878586613477 H 0.0 **** 0.06
30221 C 15.266232745408786 28.573722227818962 3.973328679790379 C 0.0 **** -0.24
30222 H 15.350324115950158 28.927358181947113 2.9453160964093676 H 0.0 **** 0.06
30223 H 16.066012089289927 29.008971624711364 4.572807248192831 H 0.0 **** 0.06
30224 H 15.348045620048424 27.48683949761488 3.9908548308141345 H 0.0 **** 0.06
30225 H 14.300955193902723 28.872176668829752 4.381399409935893 H 0.0 **** 0.06
30226 C 87.63291645557791 54.895845909684 36.24784838092694 C 0.0 **** -0.24
30227 H 88.27600978444082 54.20286084771362 36.790937950907676 H 0.0 **** 0.06
30228 H 87.56473471989472 54.58659559972989 35.20567998464168 H 0.0 **** 0.06
30229 H 88.053035275598 55.899802301348984 36.30322233079937 H 0.0 **** 0.06
30230 H 86.63899092939295 54.89318034226807 36.6945344816904 H 0.0 **** 0.06
30231 C 32.66896950705693 117.4504660071815 92.06688252085348 C 0.0 **** -0.24
30232 H 32.59407523650015 117.2044110999193 91.00788706664773 H 0.0 **** 0.06
30233 H 31.87681281199987 118.14999474502825 92.33454818499658 H 0.0 **** 0.06
30234 H 33.63944007324151 117.90599036405298 92.26685271868939 H 0.0 **** 0.06
30235 H 32.565869933469685 116.54036874689051 92.65907261819768 H 0.0 **** 0.06
30236 C 66.24471135696831 45.37641499210882 24.514661445177722 C 0.0 **** -0.24
30237 H 65.93807044708717 45.87402636221249 25.434531451550896 H 0.0 **** 0.06
30238 H 66.94197627312053 46.015799911598215 23.971251601235736 H 0.0 **** 0.06
30239 H 65.36869886843203 45.18569453997664 23.895133909003164 H 0.0 **** 0.06
30240 H 66.73129606103191 44.4314078256526 24.756008389137122 H 0.0 **** 0.06
30241 C 47.1433710990091 77.95373881832691 89.26714884365225 C 0.0 **** -0.24
30242 H 47.19705618710148 77.52735537245786 88.26472492049228 H 0.0 **** 0.06
30243 H 48.1512891317372 78.15904657431386 89.6283697717895 H 0.0 **** 0.06
30244 H 46.65436124174525 77.24506595690377 89.93664401931193 H 0.0 **** 0.06
30245 H 46.57087118590047 78.88006851502703 89.23733892169989 H 0.0 **** 0.06
30246 C 30.801845929905625 55.04594115497866 80.11877354445255 C 0.0 **** -0.24
30247 H 31.533771236922718 55.75651801282378 80.50321659937589 H 0.0 **** 0.06
30248 H 30.875691673611442 54.1116565128396 80.67592578693308 H 0.0 **** 0.06
30249 H 30.998133816678063 54.85778776533428 79.06384802085375 H 0.0 **** 0.06
30250 H 29.79968028547927 55.45947753042497 80.23388777313892 H 0.0 **** 0.06
30251 C 48.620922398477404 92.62845661329817 31.140476384921072 C 0.0 **** -0.24
30252 H 48.36951724677857 93.11668702067152 30.198710962293745 H 0.0 **** 0.06
30253 H 49.58001045488808 93.00140313049718 31.49772066326227 H 0.0 **** 0.06
30254 H 48.68359267992449 91.55121356568642 30.986689463477177 H 0.0 **** 0.06
30255 H 47.848500744929936 92.84532069220549 31.87907600148222 H 0.0 **** 0.06
30256 C 66.10101277302542 24.688980964450366 90.62049267940463 C 0.0 **** -0.24
30257 H 65.8026678902651 23.706524003007985 90.25721715353626 H 0.0 **** 0.06
30258 H 67.07513774707013 24.617928802050017 91.10531403628508 H 0.0 **** 0.06
30259 H 65.36342438925473 25.050178569349214 91.33834665886152 H 0.0 **** 0.06
30260 H 66.16138950082686 25.38369173138608 89.78218591909527 H 0.0 **** 0.06
30261 C 3.831213196013323 0.585417592442468 15.862401185812956 C 0.0 **** -0.24
30262 H 4.2688459562791365 1.1263595086934401 16.702445875054735 H 0.0 **** 0.06
30263 H 2.925135171454059 0.07571996907356038 16.192083752586807 H 0.0 **** 0.06
30264 H 4.547499884967209 -0.14908158327108367 15.492093203300495 H 0.0 **** 0.06
30265 H 3.5861063266777933 1.2871557544607128 15.066478060680758 H 0.0 **** 0.06
30266 C 40.97812018509523 108.98582608707432 72.35395469534842 C 0.0 **** -0.24
30267 H 40.02331297100772 108.76787500268713 72.83109933091345 H 0.0 **** 0.06
30268 H 41.26299718478316 110.01704192391992 72.56529950364492 H 0.0 **** 0.06
30269 H 40.88535388690199 108.8482172796773 71.27617648974783 H 0.0 **** 0.06
30270 H 41.740981125491146 108.31066402692471 72.74131232389087 H 0.0 **** 0.06
30271 C 52.67888189011222 109.12968594377188 60.6832357093877 C 0.0 **** -0.24
30272 H 52.59102699905418 108.76682070295126 59.65895404396821 H 0.0 **** 0.06
30273 H 51.88684006711185 109.85055018513367 60.88297802674947 H 0.0 **** 0.06
30274 H 53.6486360466082 109.60806530596966 60.81710347102114 H 0.0 **** 0.06
30275 H 52.58993358836119 108.29045320538722 61.37407017586105 H 0.0 **** 0.06
30276 C 10.811333431244208 99.78642052545328 74.12314235545676 C 0.0 **** -0.24
30277 H 10.365986294269419 98.79814919856904 74.23871180197568 H 0.0 **** 0.06
30278 H 11.286169440135893 99.85842297792007 73.1443252030464 H 0.0 **** 0.06
30279 H 11.558124299612444 99.94160874382504 74.90245785265449 H 0.0 **** 0.06
30280 H 10.034930958843916 100.54730806058393 74.20804806284002 H 0.0 **** 0.06
30281 C 53.453191005563866 29.35952216567688 19.696894200059347 C 0.0 **** -0.24
30282 H 52.84769963465959 28.751034683798963 19.02511018910903 H 0.0 **** 0.06
30283 H 54.470249073138945 29.42800338011139 19.30846931791976 H 0.0 **** 0.06
30284 H 53.472502909530874 28.90042167040383 20.68566130916966 H 0.0 **** 0.06
30285 H 53.023271317450934 30.35888805690621 19.768451732652323 H 0.0 **** 0.06
30286 C 49.71995801405015 66.80040160529146 36.03183211624096 C 0.0 **** -0.24
30287 H 50.24084734050305 65.99906176105301 35.507549418677584 H 0.0 **** 0.06
30288 H 48.95153552508327 67.2201469910224 35.3821242599855 H 0.0 **** 0.06
30289 H 50.43179847581854 67.57939663032667 36.30392299590568 H 0.0 **** 0.06
30290 H 49.25515860905506 66.40168763162521 36.933913203581795 H 0.0 **** 0.06
30291 C 35.296298757275906 107.39759472169402 46.49042910628694 C 0.0 **** -0.24
30292 H 34.52663827648399 108.09016814881414 46.832751216282276 H 0.0 **** 0.06
30293 H 36.27714735446273 107.76776940404699 46.789063185554454 H 0.0 **** 0.06
30294 H 35.253437054658946 107.3160692440486 45.40379250277192 H 0.0 **** 0.06
30295 H 35.12538602225263 106.41775701723975 46.93456240621654 H 0.0 **** 0.06
30296 C 12.698353946144678 39.73533198276999 33.847321178298614 C 0.0 **** -0.24
30297 H 12.917774048907248 38.72640588288962 34.197711755389435 H 0.0 **** 0.06
30298 H 12.40371860038239 40.35725050900646 34.69267372929704 H 0.0 **** 0.06
30299 H 11.886602913445373 39.698385444539156 33.12106312283015 H 0.0 **** 0.06
30300 H 13.586949362275647 40.1575631273505 33.37845062704184 H 0.0 **** 0.06
30301 C 47.6994845126714 8.085897635802425 110.59315167473883 C 0.0 **** -0.24
30302 H 47.51160153922602 7.368779201544868 109.79346750929997 H 0.0 **** 0.06
30303 H 46.84129294108132 8.750880119697968 110.69252530875713 H 0.0 **** 0.06
30304 H 48.58740174148929 8.670840395803083 110.35505194480928 H 0.0 **** 0.06
30305 H 47.85560096003951 7.551231934667271 111.53001922343645 H 0.0 **** 0.06
30306 C 59.475551203889644 41.60951553168833 94.23666905070579 C 0.0 **** -0.24
30307 H 58.46962000641988 41.763288562107476 94.62727351952654 H 0.0 **** 0.06
30308 H 59.56792292499943 40.58851755321629 93.86565800971113 H 0.0 **** 0.06
30309 H 60.202460933331174 41.77502797864585 95.0314466340304 H 0.0 **** 0.06
30310 H 59.66053136882794 42.30997915621924 93.42310618318729 H 0.0 **** 0.06
30311 C 85.41181616199736 7.812228121055796 103.6583452239833 C 0.0 **** -0.24
30312 H 84.697274823822 8.405692868791107 103.08836117854631 H 0.0 **** 0.06
30313 H 86.30166255521829 8.408746946163546 103.85885268782297 H 0.0 **** 0.06
30314 H 85.68788323736709 6.92717013287222 103.08572418209005 H 0.0 **** 0.06
30315 H 84.95844495975626 7.507354740245546 104.60144348696139 H 0.0 **** 0.06
30316 C 52.877443067705315 89.37909924240006 54.19507580987394 C 0.0 **** -0.24
30317 H 52.59305898011819 88.66945319482625 53.41783017609578 H 0.0 **** 0.06
30318 H 53.78481585655351 89.0309749082027 54.68998864906601 H 0.0 **** 0.06
30319 H 52.07243898202623 89.45777118232948 54.92652832641326 H 0.0 **** 0.06
30320 H 53.059700778892335 90.35537600658631 53.7469460070954 H 0.0 **** 0.06
30321 C 76.96309787255638 87.16471500959557 112.43232632284071 C 0.0 **** -0.24
30322 H 76.81318824874097 86.14500398926535 112.07820757948463 H 0.0 **** 0.06
30323 H 76.79552169262882 87.20298458361304 113.50882260695758 H 0.0 **** 0.06
30324 H 76.26096396731768 87.83031410446841 111.9309438819626 H 0.0 **** 0.06
30325 H 77.98377403945577 87.47881801639019 112.21225797517107 H 0.0 **** 0.06
30326 C 90.05598940722174 67.31847283914607 55.933291244970754 C 0.0 **** -0.24
30327 H 90.31348132749872 67.66754897265349 56.93357838875033 H 0.0 **** 0.06
30328 H 89.94568324400436 68.17511708367769 55.2676691194853 H 0.0 **** 0.06
30329 H 89.1179874208303 66.76445100307606 55.97293544961037 H 0.0 **** 0.06
30330 H 90.8470815901322 66.66811419731854 55.56075086629941 H 0.0 **** 0.06
30331 C 13.146277914731087 53.565610663764005 29.37730493862341 C 0.0 **** -0.24
30332 H 13.717654130713953 52.659432826511754 29.581063564074583 H 0.0 **** 0.06
30333 H 13.463169618374394 54.35548679117192 30.058373896403225 H 0.0 **** 0.06
30334 H 12.084059702543158 53.36481105959057 29.520356033702654 H 0.0 **** 0.06
30335 H 13.320600769627987 53.880398038580154 28.347553452340605 H 0.0 **** 0.06
30336 C 81.0354049841091 3.5607115881014693 88.00343070974381 C 0.0 **** -0.24
30337 H 82.12181205625274 3.484993798975694 87.95885433414344 H 0.0 **** 0.06
30338 H 80.75510188696632 4.401594125054913 88.63758233544644 H 0.0 **** 0.06
30339 H 80.62440420048216 2.6400155997239096 88.41766473459208 H 0.0 **** 0.06
30340 H 80.64055297786007 3.71495801494963 86.99908638628978 H 0.0 **** 0.06
30341 C 25.424703218098692 1.4864760254608882 54.332438175216865 C 0.0 **** -0.24
30342 H 24.542390293009078 2.1229122294702307 54.39897704361371 H 0.0 **** 0.06
30343 H 25.116448997682497 0.4517694376684176 54.180328933510694 H 0.0 **** 0.06
30344 H 25.99858144667327 1.5626525574191987 55.25509379145867 H 0.0 **** 0.06
30345 H 26.041525996559074 1.8082093296579274 53.49255069122281 H 0.0 **** 0.06
30346 C 46.50367837389069 33.64688451107215 93.3132046979425 C 0.0 **** -0.24
30347 H 47.03988341118128 32.75712491864628 93.64360235141763 H 0.0 **** 0.06
30348 H 46.625660080153324 33.765588572532465 92.23634379352518 H 0.0 **** 0.06
30349 H 46.905235778062234 34.522615292874264 93.82409400116069 H 0.0 **** 0.06
30350 H 45.44479944673138 33.542381751455245 93.549249494592 H 0.0 **** 0.06
30351 C 41.360079914462005 37.826647049440716 14.933698609888182 C 0.0 **** -0.24
30352 H 42.22582771130698 37.175163531079676 14.811839725908612 H 0.0 **** 0.06
30353 H 40.4958648199534 37.378050389402674 14.444257244336995 H 0.0 **** 0.06
30354 H 41.57047218001662 38.79717816356857 14.486006825594217 H 0.0 **** 0.06
30355 H 41.149783354570616 37.95432760711133 15.99627646064637 H 0.0 **** 0.06
30356 C 29.352737012293616 23.57445110541667 43.84357904031128 C 0.0 **** -0.24
30357 H 28.459831401808202 24.039959529928296 43.42460871990079 H 0.0 **** 0.06
30358 H 30.14484168542505 23.569422269089415 43.09394476735082 H 0.0 **** 0.06
30359 H 29.1235123842211 22.549725863017045 44.13759242802888 H 0.0 **** 0.06
30360 H 29.681058474754124 24.139060218453125 44.71644853689628 H 0.0 **** 0.06
30361 C 96.14822429335032 21.534359874317072 22.762749334192236 C 0.0 **** -0.24
30362 H 95.38732111199391 20.91072072739543 22.292941753929092 H 0.0 **** 0.06
30363 H 97.09051075973292 21.42289846501981 22.226832264603633 H 0.0 **** 0.06
30364 H 96.27975097396194 21.22515583046749 23.799569062501945 H 0.0 **** 0.06
30365 H 95.83271592812804 22.57688037282948 22.731910940019368 H 0.0 **** 0.06
30366 C 40.12159107382735 29.997602247870546 71.26774500202384 C 0.0 **** -0.24
30367 H 40.66682823473724 29.179999743137245 71.7406204887854 H 0.0 **** 0.06
30368 H 39.18029074486452 29.622606702407438 70.86550673688063 H 0.0 **** 0.06
30369 H 40.722030919430324 30.414097567794002 70.45966199599056 H 0.0 **** 0.06
30370 H 39.91835616647677 30.77298356566351 72.0069729810514 H 0.0 **** 0.06
30371 C 16.210162539586065 45.63387248403642 88.76415237217319 C 0.0 **** -0.24
30372 H 15.40033536818649 45.94701830229709 88.1046743524152 H 0.0 **** 0.06
30373 H 17.070130780152027 45.33496215824878 88.16569874043873 H 0.0 **** 0.06
30374 H 15.878422619702633 44.7906711995402 89.3705201028908 H 0.0 **** 0.06
30375 H 16.489161445480335 46.462603695655154 89.41462738183185 H 0.0 **** 0.06
30376 C 83.37631701328786 3.089702560350389 90.79707569242359 C 0.0 **** -0.24
30377 H 82.53384081588823 3.781363007560202 90.78138271273988 H 0.0 **** 0.06
30378 H 83.03471765928577 2.095458258969586 90.50713813287808 H 0.0 **** 0.06
30379 H 83.79605525173272 3.05137756714106 91.80197247223154 H 0.0 **** 0.06
30380 H 84.13872548451616 3.4306741106790355 90.09667988081159 H 0.0 **** 0.06
30381 C 61.737928040543466 3.5899261330358456 16.665784748171376 C 0.0 **** -0.24
30382 H 60.86116503381055 4.162889960964037 16.968596052228776 H 0.0 **** 0.06
30383 H 62.277784930062865 4.134237445555442 15.889719406786469 H 0.0 **** 0.06
30384 H 61.42232741975525 2.6210084760106724 16.27765403976815 H 0.0 **** 0.06
30385 H 62.3892337849762 3.4416204211421757 17.52642447626846 H 0.0 **** 0.06
30386 C 44.13493103054422 112.30166265029256 0.2620497869038161 C 0.0 **** -0.24
30387 H 44.59326416732128 113.05217278010096 -0.38245924061632763 H 0.0 **** 0.06
30388 H 43.04958762169866 112.37999537990652 0.19432038278596053 H 0.0 **** 0.06
30389 H 44.44730321951478 112.46824798729718 1.2925794877714765 H 0.0 **** 0.06
30390 H 44.44876710249618 111.30800379624363 -0.057348956236310755 H 0.0 **** 0.06
30391 C 71.79087352245006 52.38235070143605 88.34904451647444 C 0.0 **** -0.24
30392 H 72.79468782024412 52.27754232782371 87.93606668098923 H 0.0 **** 0.06
30393 H 71.62590181013672 51.61213817458213 89.10201697700657 H 0.0 **** 0.06
30394 H 71.05674114736905 52.273611507576845 87.54979668330401 H 0.0 **** 0.06
30395 H 71.68663601626395 53.36717011908593 88.80553097346234 H 0.0 **** 0.06
30396 C 67.31346179892023 1.2495009221734392 1.9582921051783018 C 0.0 **** -0.24
30397 H 67.2840545371601 0.645063139951489 2.8647521079076057 H 0.0 **** 0.06
30398 H 66.83225639357806 0.7071170093696395 1.144187295077998 H 0.0 **** 0.06
30399 H 68.35062465688594 1.455855670216863 1.6939788515277883 H 0.0 **** 0.06
30400 H 66.78835505309365 2.189075899822626 2.1305980638994555 H 0.0 **** 0.06
30401 C 31.69005131958413 62.11495727334249 38.74385496863002 C 0.0 **** -0.24
30402 H 31.036489632604017 62.02406189261614 37.87727628295292 H 0.0 **** 0.06
30403 H 31.408824435592415 62.997054370107556 39.32009431748952 H 0.0 **** 0.06
30404 H 32.72404541313899 62.212582687785236 38.4103071173334 H 0.0 **** 0.06
30405 H 31.592847607499884 61.22648362829262 39.36681044028124 H 0.0 **** 0.06
30406 C 63.519624946109126 110.78876759686412 91.11439187189646 C 0.0 **** -0.24
30407 H 63.21451959732236 110.10287314540273 90.32402606822305 H 0.0 **** 0.06
30408 H 62.761288979592756 110.79939730329173 91.89775652773935 H 0.0 **** 0.06
30409 H 63.63163374527584 111.7911347621075 90.70180899596465 H 0.0 **** 0.06
30410 H 64.47102655358324 110.45945481437832 91.53431299512997 H 0.0 **** 0.06
30411 C 107.27638121656832 48.44429849101002 40.596165095405496 C 0.0 **** -0.24
30412 H 108.04652627148823 48.95343424131073 40.0178815382811 H 0.0 **** 0.06
30413 H 107.71748730086114 47.59454242852726 41.11852580309542 H 0.0 **** 0.06
30414 H 106.49261057959276 48.09204015263376 39.92528787732823 H 0.0 **** 0.06
30415 H 106.84943593105018 49.136290809471504 41.32200179611533 H 0.0 **** 0.06
30416 C 10.740635457469509 1.31672777908976 32.90896437291866 C 0.0 **** -0.24
30417 H 10.498924265449403 2.3687139027260855 33.056003087451245 H 0.0 **** 0.06
30418 H 11.006257008533481 1.1479780156720238 31.865109827957212 H 0.0 **** 0.06
30419 H 9.874602169623216 0.7059302842819051 33.166939999388546 H 0.0 **** 0.06
30420 H 11.580847369977874 1.0439578573329982 33.54669160283902 H 0.0 **** 0.06
30421 C 112.36414539049865 114.68673491891411 29.718953614880718 C 0.0 **** -0.24
30422 H 111.57248442924785 115.30093484016803 30.14961824860677 H 0.0 **** 0.06
30423 H 113.06989336098336 115.32406170865177 29.18670846258408 H 0.0 **** 0.06
30424 H 111.92881536517682 113.96695671624038 29.02636309462281 H 0.0 **** 0.06
30425 H 112.8846473610133 114.15478499680763 30.516192367764802 H 0.0 **** 0.06
30426 C 28.148681958888133 66.85072727644774 82.38005090462056 C 0.0 **** -0.24
30427 H 27.403163312366345 67.20303634396993 81.6672144331157 H 0.0 **** 0.06
30428 H 27.684545806525705 66.72925958165229 83.3589220993247 H 0.0 **** 0.06
30429 H 28.957691211571323 67.57775004450536 82.44881480884266 H 0.0 **** 0.06
30430 H 28.54827695817493 65.89377030626264 82.04498115028852 H 0.0 **** 0.06
30431 C 111.01132573854203 44.44054729638802 4.881055183005515 C 0.0 **** -0.24
30432 H 110.9632536605738 43.90222740006885 5.827859998849988 H 0.0 **** 0.06
30433 H 110.17523938562088 44.14092188448646 4.249818504886775 H 0.0 **** 0.06
30434 H 111.94942979571928 44.20622333127011 4.377875663849466 H 0.0 **** 0.06
30435 H 110.95933840543337 45.513164838394346 5.070096301512933 H 0.0 **** 0.06
30436 C 108.57096820627649 90.11784220613828 64.45593040360686 C 0.0 **** -0.24
30437 H 109.18770588167999 89.39672871985309 64.99281640543842 H 0.0 **** 0.06
30438 H 107.53053152133333 89.79205746021447 64.47805354871534 H 0.0 **** 0.06
30439 H 108.9089437981516 90.18731753984096 63.422666563278405 H 0.0 **** 0.06
30440 H 108.65538376160583 91.09458484363199 64.93315618858034 H 0.0 **** 0.06
30441 C 60.52584324475481 77.61460249366218 42.02732761867972 C 0.0 **** -0.24
30442 H 59.509909103712175 77.34715353523194 42.31694359081274 H 0.0 **** 0.06
30443 H 60.50993094629371 78.09035087764954 41.04653718810383 H 0.0 **** 0.06
30444 H 61.14019165960019 76.71448715437276 41.984455128311 H 0.0 **** 0.06
30445 H 60.94284461698885 78.30426549294117 42.76031690635648 H 0.0 **** 0.06
30446 C 75.70168941223227 19.776951460674297 11.402325346098166 C 0.0 **** -0.24
30447 H 76.28784459362177 20.65286415842013 11.681333679919021 H 0.0 **** 0.06
30448 H 74.96294884171442 20.05860825264486 10.651737302885238 H 0.0 **** 0.06
30449 H 75.19311811346748 19.38591013295445 12.284355145578672 H 0.0 **** 0.06
30450 H 76.3618082991184 19.012667706008557 10.994683533884185 H 0.0 **** 0.06
30451 C 59.39084078184185 57.92209462215984 105.80811533999753 C 0.0 **** -0.24
30452 H 58.66660828336787 57.273465826071124 106.30100330520835 H 0.0 **** 0.06
30453 H 58.97836913217079 58.27302686910294 104.86142196398461 H 0.0 **** 0.06
30454 H 60.3092016148695 57.36587956286089 105.62225864609283 H 0.0 **** 0.06
30455 H 59.60709511147727 58.77735146050086 106.4494588200962 H 0.0 **** 0.06
30456 C 118.65712259270427 93.78654951388489 87.84028897394074 C 0.0 **** -0.24
30457 H 119.40124332342683 93.21458678918427 88.39409265473256 H 0.0 **** 0.06
30458 H 118.97924972946507 93.89334879708602 86.80426406375909 H 0.0 **** 0.06
30459 H 118.54766299867958 94.7732559764087 88.29081372258582 H 0.0 **** 0.06
30460 H 117.70137819705795 93.26473289697279 87.87107135320315 H 0.0 **** 0.06
30461 C 90.84607447067685 91.59173970988238 12.602779303480816 C 0.0 **** -0.24
30462 H 91.91588699447385 91.41986584673205 12.71959575738208 H 0.0 **** 0.06
30463 H 90.45433944132671 92.063789776319 13.503140288066902 H 0.0 **** 0.06
30464 H 90.34094135824185 90.6388766382612 12.441794432692632 H 0.0 **** 0.06
30465 H 90.67436012495315 92.24357577144852 11.745713057209628 H 0.0 **** 0.06
30466 C 58.415632559424154 16.940889860841622 117.31013138690653 C 0.0 **** -0.24
30467 H 57.49025835780765 17.151834519035646 116.7746423806444 H 0.0 **** 0.06
30468 H 58.31504881827334 16.0002241099709 117.85234672787203 H 0.0 **** 0.06
30469 H 58.61941589925357 17.74666216354521 118.01464388441681 H 0.0 **** 0.06
30470 H 59.237445612894675 16.86380652687859 116.59799582771129 H 0.0 **** 0.06
30471 C 21.280430144469232 77.19780177212829 60.76481470853537 C 0.0 **** -0.24
30472 H 22.182655349914608 76.92756916794832 60.21494048349939 H 0.0 **** 0.06
30473 H 21.452728367841296 77.06290322934115 61.83254419887146 H 0.0 **** 0.06
30474 H 20.456356092104077 76.55951357504631 60.44566001477648 H 0.0 **** 0.06
30475 H 21.0313621956988 78.23969297948656 60.56478869096941 H 0.0 **** 0.06
30476 C 69.67907088763317 118.59762740422576 89.13217896258857 C 0.0 **** -0.24
30477 H 70.48925603969187 119.11439065061492 88.61676127354741 H 0.0 **** 0.06
30478 H 69.97493852422284 117.56768022072846 89.33181291445612 H 0.0 **** 0.06
30479 H 68.78765673249032 118.60620475312685 88.50603063879527 H 0.0 **** 0.06
30480 H 69.46780492369112 119.10495139581779 90.0736191582618 H 0.0 **** 0.06
30481 C 99.28081410639814 44.857238655742634 95.9932884375387 C 0.0 **** -0.24
30482 H 98.55885004477585 45.50659740895102 96.48860215662611 H 0.0 **** 0.06
30483 H 100.27646904214578 45.05192785206654 96.3918758622053 H 0.0 **** 0.06
30484 H 99.27227166424038 45.055563795070576 94.9216874327463 H 0.0 **** 0.06
30485 H 99.0140291852519 43.81529416525017 96.17245065947597 H 0.0 **** 0.06
30486 C 3.086312057363102 109.7818667213545 28.5804076544295 C 0.0 **** -0.24
30487 H 2.320845950151295 110.54377974514028 28.72407982613106 H 0.0 **** 0.06
30488 H 4.058452167349799 110.26109946107721 28.464696127901036 H 0.0 **** 0.06
30489 H 2.85810657442579 109.20113587089719 27.686341918646455 H 0.0 **** 0.06
30490 H 3.1077530697322118 109.12081943977932 29.44728215012583 H 0.0 **** 0.06
30491 C 28.121238962488235 45.13634728589591 62.31140152288186 C 0.0 **** -0.24
30492 H 28.151127015304098 45.77314231081124 63.19585073110037 H 0.0 **** 0.06
30493 H 28.144144458520998 45.758327703268975 61.41563070025396 H 0.0 **** 0.06
30494 H 27.20525287694511 44.54523976258941 62.320288620920785 H 0.0 **** 0.06
30495 H 28.984337328420395 44.47038600409738 62.31411656922544 H 0.0 **** 0.06
30496 C 96.78820884748808 96.14474741005534 40.37928371405346 C 0.0 **** -0.24
30497 H 95.81902327954168 95.82061306082272 39.99956953874434 H 0.0 **** 0.06
30498 H 97.22583542402413 96.8649197356628 39.68813803097808 H 0.0 **** 0.06
30499 H 97.44762084752949 95.2821919651883 40.47273132559977 H 0.0 **** 0.06
30500 H 96.6575322889174 96.61053770319222 41.355471474336326 H 0.0 **** 0.06
30501 C 4.792159786225028 2.062209058576343 28.550267487607243 C 0.0 **** -0.24
30502 H 4.547155129716373 3.122860950592255 28.604395501938825 H 0.0 **** 0.06
30503 H 4.434157184951175 1.5606715639654567 29.449695017629978 H 0.0 **** 0.06
30504 H 5.873000131105755 1.9429516105611668 28.472644035359224 H 0.0 **** 0.06
30505 H 4.313341469194313 1.6232289811908345 27.674845821385958 H 0.0 **** 0.06
30506 C 116.4465383559191 70.47579102840717 3.5848213267056988 C 0.0 **** -0.24
30507 H 116.46037371918487 71.04661917622548 4.513861928130693 H 0.0 **** 0.06
30508 H 115.73497158660842 69.65526723055314 3.672889224896979 H 0.0 **** 0.06
30509 H 117.44195635462091 70.07514182689215 3.3910383481365063 H 0.0 **** 0.06
30510 H 116.15121338293942 71.1285266393887 2.763141357742745 H 0.0 **** 0.06
30511 C 21.8659474404989 32.01918356192721 107.16790968105357 C 0.0 **** -0.24
30512 H 21.893455550321022 33.07076281526463 106.88397677728418 H 0.0 **** 0.06
30513 H 20.99912975746338 31.542634038512233 106.71060103679105 H 0.0 **** 0.06
30514 H 21.795963782432693 31.937288128452536 108.25261148315965 H 0.0 **** 0.06
30515 H 22.775318887668675 31.52701331239109 106.82419535142907 H 0.0 **** 0.06
30516 C 50.517263125857994 49.52172852958941 60.56391650738906 C 0.0 **** -0.24
30517 H 51.153413449116925 50.38850628412038 60.38419541595798 H 0.0 **** 0.06
30518 H 49.85272660154362 49.72608189839522 61.402933451096736 H 0.0 **** 0.06
30519 H 51.139157231211286 48.6566017755587 60.79367068786677 H 0.0 **** 0.06
30520 H 49.92455288770816 49.316019256769295 59.672569302867124 H 0.0 **** 0.06
30521 C 85.19786539014802 89.07305301934778 101.7016108732791 C 0.0 **** -0.24
30522 H 85.78315789703214 89.98708333716795 101.80009846758489 H 0.0 **** 0.06
30523 H 85.8539666895035 88.25119707291319 101.41182722601087 H 0.0 **** 0.06
30524 H 84.43153094386273 89.21199198069425 100.94060304787911 H 0.0 **** 0.06
30525 H 84.72490604604434 88.84096280839103 102.6558216258864 H 0.0 **** 0.06
30526 C 98.38564214039289 115.99779618076954 47.76831610244241 C 0.0 **** -0.24
30527 H 98.95375963030571 116.74535585526797 48.32101815619079 H 0.0 **** 0.06
30528 H 98.5374421945736 116.14291948748766 46.698090602993275 H 0.0 **** 0.06
30529 H 97.32564477759703 116.1015293679415 48.002283288436175 H 0.0 **** 0.06
30530 H 98.72372730458923 115.0015269204097 48.05187474272 H 0.0 **** 0.06
30531 C 8.069634367313483 16.38144124662844 41.93563198168782 C 0.0 **** -0.24
30532 H 8.644849465283244 17.155851647677565 42.443481087228314 H 0.0 **** 0.06
30533 H 7.063839044863755 16.34334734077251 42.35402556962399 H 0.0 **** 0.06
30534 H 8.5578600813636 15.416647094988292 42.07284517882854 H 0.0 **** 0.06
30535 H 8.01210603608223 16.6112891693773 40.87184630128604 H 0.0 **** 0.06
30536 C 82.20705390930587 97.42017947380702 63.8866514858436 C 0.0 **** -0.24
30537 H 82.47259062663363 98.00714961206873 63.00678618796215 H 0.0 **** 0.06
30538 H 82.73714051672525 96.46758219336411 63.86219267237837 H 0.0 **** 0.06
30539 H 81.1326386823203 97.23865747933323 63.89014570460978 H 0.0 **** 0.06
30540 H 82.48559920653705 97.9690194177233 64.78603893273487 H 0.0 **** 0.06
30541 C 21.2592025555428 76.61862089050157 36.49970052667648 C 0.0 **** -0.24
30542 H 21.526434649276126 77.47218522084032 37.12204646283887 H 0.0 **** 0.06
30543 H 22.137921894383055 75.99228725077043 36.34589199543384 H 0.0 **** 0.06
30544 H 20.891621721489997 76.9725425135199 35.53624818508193 H 0.0 **** 0.06
30545 H 20.48116666198166 76.03883430758736 36.9944642372632 H 0.0 **** 0.06
30546 C 11.82579964294338 31.00670341765104 42.5184354486355 C 0.0 **** -0.24
30547 H 12.691990019230886 31.579115743745746 42.184336637287856 H 0.0 **** 0.06
30548 H 11.323144465153632 31.545760712955754 43.32111442607413 H 0.0 **** 0.06
30549 H 12.15206005563131 30.032665322882792 42.88161370136345 H 0.0 **** 0.06
30550 H 11.13706378523122 30.871015371055705 41.68370415894867 H 0.0 **** 0.06
30551 C 23.68492484998154 104.12705061653477 88.81899554678006 C 0.0 **** -0.24
30552 H 22.693651121500295 104.12121165396772 88.36523360741995 H 0.0 **** 0.06
30553 H 24.3134507796047 103.38454950252242 88.32700485726377 H 0.0 **** 0.06
30554 H 23.600219318068696 103.88736361631697 89.87857548196473 H 0.0 **** 0.06
30555 H 24.131562297038577 105.11435543724733 88.70426668790515 H 0.0 **** 0.06
30556 C 42.50794288902589 117.9457449541442 6.64444151570865 C 0.0 **** -0.24
30557 H 43.46708836213018 118.1555830004003 7.118216299343146 H 0.0 **** 0.06
30558 H 42.1210730916475 118.8569797124699 6.189270678188706 H 0.0 **** 0.06
30559 H 41.8038872628263 117.58518524415946 7.3939679688559465 H 0.0 **** 0.06
30560 H 42.642036081386166 117.18334400668677 5.876018797141512 H 0.0 **** 0.06
30561 C 47.07486889039296 83.55226561426082 43.26492983924447 C 0.0 **** -0.24
30562 H 47.45303292399558 84.53338692916026 43.54975683621154 H 0.0 **** 0.06
30563 H 47.884194904421975 82.82346055029606 43.312450043162755 H 0.0 **** 0.06
30564 H 46.68381938678283 83.59457384756743 42.24796921260611 H 0.0 **** 0.06
30565 H 46.27889765060462 83.25763756818156 43.9482091518214 H 0.0 **** 0.06
30566 C 15.35489959236305 53.03620097447605 4.1782150411323755 C 0.0 **** -0.24
30567 H 14.626369520353197 53.744633620154175 4.571142040480481 H 0.0 **** 0.06
30568 H 16.361390971131993 53.37722337380145 4.421770842447586 H 0.0 **** 0.06
30569 H 15.246653043471692 52.96584845708794 3.0961869735406253 H 0.0 **** 0.06
30570 H 15.185428695119636 52.05589244771065 4.6244575993645185 H 0.0 **** 0.06
30571 C 105.24345098601071 86.20761015375746 85.72602904599941 C 0.0 **** -0.24
30572 H 106.31321767154657 86.1482741772814 85.92463923355507 H 0.0 **** 0.06
30573 H 104.87244148387 87.18940770085669 86.02082408849037 H 0.0 **** 0.06
30574 H 104.72518657356639 85.43740634532566 86.29748042369934 H 0.0 **** 0.06
30575 H 105.0628458323144 86.05436346488187 84.66217718262246 H 0.0 **** 0.06
30576 C 13.975941713827211 55.866404166433206 89.36883506722222 C 0.0 **** -0.24
30577 H 14.523263428405102 56.77257614461386 89.63069175463994 H 0.0 **** 0.06
30578 H 13.007985792347 56.136050148296796 88.94582682152202 H 0.0 **** 0.06
30579 H 13.826857558700226 55.26077925855382 90.26280540231562 H 0.0 **** 0.06
30580 H 14.546775504907998 55.29773036119803 88.6348129618653 H 0.0 **** 0.06
30581 C 45.66917997637768 50.38956961907496 78.64379926459813 C 0.0 **** -0.24
30582 H 44.67674332625859 49.93965597794357 78.5961141569116 H 0.0 **** 0.06
30583 H 46.11602158721246 50.17975464225759 79.61564947128755 H 0.0 **** 0.06
30584 H 45.584869371109164 51.46780845323798 78.50725138944253 H 0.0 **** 0.06
30585 H 46.295973743530794 49.97161443322943 77.85627556038455 H 0.0 **** 0.06
30586 C 100.47374804296521 97.83392554391912 63.64166066220245 C 0.0 **** -0.24
30587 H 101.40524492174353 98.40040696069752 63.65615132119262 H 0.0 **** 0.06
30588 H 99.66457387429637 98.47413451850696 63.2898152106766 H 0.0 **** 0.06
30589 H 100.24765983433184 97.48166509604891 64.64729437997383 H 0.0 **** 0.06
30590 H 100.5783054657814 96.9795120975806 62.972210113786794 H 0.0 **** 0.06
30591 C 46.31052005675136 110.82980441428897 13.38141918356149 C 0.0 **** -0.24
30592 H 46.899888912067155 111.45361202999281 14.052498095601038 H 0.0 **** 0.06
30593 H 45.37438122699207 110.55625048170211 13.86929618809495 H 0.0 **** 0.06
30594 H 46.871289512066596 109.9263879567113 13.138785770971992 H 0.0 **** 0.06
30595 H 46.09537678911235 111.38079035185277 12.46649439250342 H 0.0 **** 0.06
30596 C 17.057169738072304 31.378358636326396 75.9909574218108 C 0.0 **** -0.24
30597 H 17.922718953135927 31.81304273179589 75.49121263785543 H 0.0 **** 0.06
30598 H 16.401721073690283 30.92091400292219 75.24973745777339 H 0.0 **** 0.06
30599 H 16.515424291178874 32.16002607647124 76.52307341095502 H 0.0 **** 0.06
30600 H 17.39005370635192 30.61986476808127 76.69926375972412 H 0.0 **** 0.06
30601 C 106.64765596444187 98.48852059588208 40.111876893940575 C 0.0 **** -0.24
30602 H 107.38463062040648 97.81465816190524 39.675100819157024 H 0.0 **** 0.06
30603 H 106.2110530754826 99.10761191152088 39.328314250840634 H 0.0 **** 0.06
30604 H 107.13248910117761 99.12619868691507 40.85181345566866 H 0.0 **** 0.06
30605 H 105.86271543579682 97.90589128465612 40.59396818762494 H 0.0 **** 0.06
30606 C 81.05151219583715 0.6645584380605101 13.440866499776178 C 0.0 **** -0.24
30607 H 80.6912548024053 0.13768125927140318 14.324499694856485 H 0.0 **** 0.06
30608 H 81.93995361650624 0.16395830571903502 13.056950007586835 H 0.0 **** 0.06
30609 H 81.29730661205443 1.6924209186692707 13.706065189471303 H 0.0 **** 0.06
30610 H 80.27444670262838 0.66301199234519 12.675601528216333 H 0.0 **** 0.06
30611 C 35.144665961946856 107.5869288807312 57.67770154605594 C 0.0 **** -0.24
30612 H 34.72408454676125 107.4014260593824 56.68997715369963 H 0.0 **** 0.06
30613 H 34.340441987787074 107.80983789255063 58.378981768364156 H 0.0 **** 0.06
30614 H 35.8284847370206 108.4344339941099 57.62791651352808 H 0.0 **** 0.06
30615 H 35.68621254435709 106.70284444386468 58.01398352395486 H 0.0 **** 0.06
30616 C 69.49245022653182 11.99455006788493 14.491691539072946 C 0.0 **** -0.24
30617 H 70.42038638887334 11.62603409570983 14.929197009349537 H 0.0 **** 0.06
30618 H 69.32025508134404 11.501093026406856 13.535884305174392 H 0.0 **** 0.06
30619 H 69.56574169027328 13.071376691663001 14.338497642160974 H 0.0 **** 0.06
30620 H 68.66393674562099 11.78019557665516 15.166859030098351 H 0.0 **** 0.06
30621 C 83.67648288525697 2.0622085950891 32.096852901884446 C 0.0 **** -0.24
30622 H 84.65545228634664 2.357473601403477 32.47179415366784 H 0.0 **** 0.06
30623 H 83.51725427947576 2.498544015057387 31.11053335483154 H 0.0 **** 0.06
30624 H 82.90414116953235 2.4166558359348205 32.780295703703715 H 0.0 **** 0.06
30625 H 83.62647509233813 0.975620617409497 32.02616796275505 H 0.0 **** 0.06
30626 C 116.02224597198426 7.533045753615497 67.1145283261738 C 0.0 **** -0.24
30627 H 116.66961424952328 8.389737330721744 67.30203146682041 H 0.0 **** 0.06
30628 H 115.02452350785794 7.739124703406105 67.50369280854048 H 0.0 **** 0.06
30629 H 116.43186589228446 6.653036247360845 67.61105667045695 H 0.0 **** 0.06
30630 H 115.96342778619956 7.351171601760939 66.0414473508946 H 0.0 **** 0.06
30631 C 53.94240127300607 56.77006563870913 42.278438576911704 C 0.0 **** -0.24
30632 H 52.98665152073688 57.204012087755586 41.98188579276181 H 0.0 **** 0.06
30633 H 54.05579766041564 56.84876816381529 43.36006133524077 H 0.0 **** 0.06
30634 H 54.75341769443893 57.307379906106064 41.7879528496255 H 0.0 **** 0.06
30635 H 53.97111808666793 55.72054029873772 41.98482573657022 H 0.0 **** 0.06
30636 C 87.55969367981467 24.78298945707985 77.85376484290188 C 0.0 **** -0.24
30637 H 86.9818291739538 24.253815660361596 78.61151300478392 H 0.0 **** 0.06
30638 H 88.61105654481347 24.507541773604743 77.94225396873011 H 0.0 **** 0.06
30639 H 87.45187690933548 25.857916788317652 78.00139408037941 H 0.0 **** 0.06
30640 H 87.19380839533434 24.513792925703342 76.86346605336948 H 0.0 **** 0.06
30641 C 93.56983192064331 20.82268570316694 93.36155085250115 C 0.0 **** -0.24
30642 H 93.00708822276181 21.672340078836925 93.75032667156395 H 0.0 **** 0.06
30643 H 92.93348895250932 19.938049135403645 93.35804294984831 H 0.0 **** 0.06
30644 H 94.43892978986275 20.643266615616852 93.9931497415017 H 0.0 **** 0.06
30645 H 93.897393987339 21.03952508412658 92.34509312616902 H 0.0 **** 0.06
30646 C 88.27630070438605 67.01246721840928 47.491719623029866 C 0.0 **** -0.24
30647 H 87.9968559675523 65.97584774954703 47.67964321960555 H 0.0 **** 0.06
30648 H 87.64393701949612 67.67304731059846 48.085467651336245 H 0.0 **** 0.06
30649 H 88.14523634305789 67.23754981455477 46.43370238458189 H 0.0 **** 0.06
30650 H 89.32028475719218 67.16265053609351 47.76847383405013 H 0.0 **** 0.06
30651 C 60.86483573730118 93.59503914508207 28.07312311208031 C 0.0 **** -0.24
30652 H 60.55143404627907 94.62428148336966 28.24708328560527 H 0.0 **** 0.06
30653 H 61.86141843857567 93.58737567060047 27.631418715761527 H 0.0 **** 0.06
30654 H 60.16246836949762 93.11163060419705 27.394693466684487 H 0.0 **** 0.06
30655 H 60.882646635515016 93.0568387584305 29.02176835160006 H 0.0 **** 0.06
30656 C 93.39332060260696 29.579861487591074 10.26623071787867 C 0.0 **** -0.24
30657 H 93.64469752759067 29.920874794166394 11.27055244814997 H 0.0 **** 0.06
30658 H 94.23402558538103 29.023820244516656 9.850509804938639 H 0.0 **** 0.06
30659 H 93.17906258302486 30.441697221139805 9.63372516420634 H 0.0 **** 0.06
30660 H 92.51665745098916 28.934246132365075 10.310616025561472 H 0.0 **** 0.06
30661 C 93.57741322146347 29.994945949953518 17.292518436893886 C 0.0 **** -0.24
30662 H 93.9365864395017 29.44298819353834 16.424019850238636 H 0.0 **** 0.06
30663 H 93.37690333028064 29.29765624191613 18.10729788158349 H 0.0 **** 0.06
30664 H 92.6618918268436 30.52517620668297 17.033597757461763 H 0.0 **** 0.06
30665 H 94.33617766777655 30.711915992172095 17.606940245488204 H 0.0 **** 0.06
30666 C 28.398133915334085 74.44454020853684 44.17577769710063 C 0.0 **** -0.24
30667 H 29.32802904143631 73.87727237609354 44.21524701686414 H 0.0 **** 0.06
30668 H 28.300616116253025 75.04568325905063 45.0801321177849 H 0.0 **** 0.06
30669 H 27.555765920590034 73.75706525533812 44.10294305756125 H 0.0 **** 0.06
30670 H 28.40976120988023 75.09962240006797 43.30443636267972 H 0.0 **** 0.06
30671 C 12.337494804490035 105.34112632767943 48.356493339998934 C 0.0 **** -0.24
30672 H 12.796307610819696 104.36416696624937 48.20577254154432 H 0.0 **** 0.06
30673 H 12.647013048303137 106.01460488756393 47.55647038282541 H 0.0 **** 0.06
30674 H 12.655335282344652 105.74760489456474 49.31726607405068 H 0.0 **** 0.06
30675 H 11.252731859500045 105.23804165350268 48.346372394827426 H 0.0 **** 0.06
30676 C 59.025039605541444 8.56927862308904 109.66397194006066 C 0.0 **** -0.24
30677 H 58.53274669637141 8.877247877499734 110.58706146376471 H 0.0 **** 0.06
30678 H 58.32426885097886 8.655699268082063 108.83341164299688 H 0.0 **** 0.06
30679 H 59.352973028620305 7.5346322283918 109.75608591532412 H 0.0 **** 0.06
30680 H 59.88747034753958 9.210197031131745 109.48045794387167 H 0.0 **** 0.06
30681 C 49.28864576724061 83.55263074614726 112.44748622727448 C 0.0 **** -0.24
30682 H 49.91764861816961 82.76141831401566 112.85600904957815 H 0.0 **** 0.06
30683 H 48.60710523941748 83.9099808511001 113.22029154432843 H 0.0 **** 0.06
30684 H 48.7135396134741 83.16168672279304 111.60735806581246 H 0.0 **** 0.06
30685 H 49.9165585259571 84.37612316619919 112.10673500489051 H 0.0 **** 0.06
30686 C 88.55436282493454 44.69444372892566 0.5127765002533469 C 0.0 **** -0.24
30687 H 89.19285909767666 43.9174051179333 0.09252529622666117 H 0.0 **** 0.06
30688 H 88.5674941962832 44.62641593365201 1.6014819108923977 H 0.0 **** 0.06
30689 H 87.53422420917045 44.55992125506253 0.15278136991478242 H 0.0 **** 0.06
30690 H 88.9224826715797 45.67246606065586 0.20494441919526096 H 0.0 **** 0.06
30691 C 24.97287774300049 55.00017924853597 15.688482307740514 C 0.0 **** -0.24
30692 H 25.654772488960752 55.376985845817956 14.925658633837088 H 0.0 **** 0.06
30693 H 25.345258343941374 55.27575785739569 16.675321559437975 H 0.0 **** 0.06
30694 H 24.909943786541255 53.91469584910655 15.613919194342174 H 0.0 **** 0.06
30695 H 23.9845134609005 55.43344871631322 15.537577901503624 H 0.0 **** 0.06
30696 C 109.79283255513042 43.66896715926151 59.29936262136186 C 0.0 **** -0.24
30697 H 110.82374223741567 44.00727413727145 59.409108934402404 H 0.0 **** 0.06
30698 H 109.31866448605308 43.623938722588605 60.27959301706829 H 0.0 **** 0.06
30699 H 109.78209484870604 42.67945691044733 58.84382704681307 H 0.0 **** 0.06
30700 H 109.24853235653825 44.36741699453631 58.66313881175382 H 0.0 **** 0.06
30701 C 69.5770240913744 60.512629387759596 39.243576784501556 C 0.0 **** -0.24
30702 H 69.82901035433488 61.541582580498535 39.50244332745575 H 0.0 **** 0.06
30703 H 70.10213303343241 60.229639148076295 38.33200417881454 H 0.0 **** 0.06
30704 H 68.50149865350775 60.43244019939083 39.084890580756166 H 0.0 **** 0.06
30705 H 69.8751326000052 59.8508122337901 40.05676983907654 H 0.0 **** 0.06
30706 C 18.36614913768898 87.02405382009718 63.10633332505677 C 0.0 **** -0.24
30707 H 17.611742462020544 87.50352748287995 63.72954364541701 H 0.0 **** 0.06
30708 H 17.990375458638738 86.93550205372773 62.086457666007306 H 0.0 **** 0.06
30709 H 18.585137568222223 86.03118018469098 63.50031255247967 H 0.0 **** 0.06
30710 H 19.275211010683137 87.624892521133 63.10854574889521 H 0.0 **** 0.06
30711 C 84.8115866603485 68.94521473961333 27.877682042271644 C 0.0 **** -0.24
30712 H 84.07510197676191 68.44297734601838 27.250211328773815 H 0.0 **** 0.06
30713 H 84.35460456697439 69.82019265594204 28.34283012447571 H 0.0 **** 0.06
30714 H 85.65708925154416 69.25910402603446 27.266087883468543 H 0.0 **** 0.06
30715 H 85.15656443322246 68.2608251378511 28.651851079665875 H 0.0 **** 0.06
30716 C 20.60267461122114 22.714919594739683 40.29382168746909 C 0.0 **** -0.24
30717 H 21.405706699535592 23.204966369667147 40.8432879043323 H 0.0 **** 0.06
30718 H 20.916373145715337 21.709144700894996 40.013206829335246 H 0.0 **** 0.06
30719 H 20.373496069293623 23.289101590239284 39.396165965708605 H 0.0 **** 0.06
30720 H 19.7145065331952 22.65669449220519 40.924228668866334 H 0.0 **** 0.06
30721 C 110.33189517920636 19.391315588087394 19.64952208262841 C 0.0 **** -0.24
30722 H 109.49886366298625 20.027856305183207 19.950389276097383 H 0.0 **** 0.06
30723 H 111.27214985316687 19.88480612968806 19.894925397562616 H 0.0 **** 0.06
30724 H 110.28311088748751 19.21499015281927 18.574749998676566 H 0.0 **** 0.06
30725 H 110.27081605337946 18.439606770234832 20.17781959683063 H 0.0 **** 0.06
30726 C 63.280409431547014 51.54608390869143 44.97698042065688 C 0.0 **** -0.24
30727 H 62.19519118235067 51.61963149145663 44.91329667922646 H 0.0 **** 0.06
30728 H 63.72510094330036 52.51552004473572 44.74722895079256 H 0.0 **** 0.06
30729 H 63.63724261002665 50.80438195344789 44.26273128181838 H 0.0 **** 0.06
30730 H 63.565711654341925 51.245402547266906 45.984892572502446 H 0.0 **** 0.06
30731 C 63.945021958344114 45.20677237597579 64.08247677074723 C 0.0 **** -0.24
30732 H 64.21315435984533 46.26161287013593 64.00804401774118 H 0.0 **** 0.06
30733 H 64.8514350475406 44.60683065043322 64.16521020996026 H 0.0 **** 0.06
30734 H 63.39072471340327 44.90960577454886 63.191776938510436 H 0.0 **** 0.06
30735 H 63.32470589625191 45.05217578403795 64.96528107645517 H 0.0 **** 0.06
30736 C 57.84237874065091 88.88307062542626 55.059430083710595 C 0.0 **** -0.24
30737 H 56.964788246091395 88.39637256491142 55.48385727048077 H 0.0 **** 0.06
30738 H 58.54204273937996 89.13355918337012 55.857716639004764 H 0.0 **** 0.06
30739 H 57.53860030138582 89.79324716185408 54.542877213185704 H 0.0 **** 0.06
30740 H 58.324613283728816 88.2074238445503 54.351891439283804 H 0.0 **** 0.06
30741 C 78.72014153679646 41.357117056612935 51.007191593902974 C 0.0 **** -0.24
30742 H 79.39409282861692 41.792226394023885 51.74584926228246 H 0.0 **** 0.06
30743 H 78.84454361123267 40.27378812560062 50.996459205327966 H 0.0 **** 0.06
30744 H 78.95384196459341 41.75957904312327 50.02132646457457 H 0.0 **** 0.06
30745 H 77.69019902060018 41.603302253448646 51.26573141476746 H 0.0 **** 0.06
30746 C 36.31448504934164 75.15420367028474 92.57876923072087 C 0.0 **** -0.24
30747 H 36.78425188832234 75.90148971855567 91.93775334910765 H 0.0 **** 0.06
30748 H 35.987878583174705 75.62592433019393 93.50555205611107 H 0.0 **** 0.06
30749 H 37.03349036161015 74.36684124063231 92.80499772948195 H 0.0 **** 0.06
30750 H 35.45422237436932 74.72543079287922 92.06531282003243 H 0.0 **** 0.06
30751 C 10.427108165232198 110.69502552491313 10.944660004656463 C 0.0 **** -0.24
30752 H 11.48185425632705 110.9555291930986 10.857607829040067 H 0.0 **** 0.06
30753 H 9.86456774287591 111.56558768524343 11.284002675585487 H 0.0 **** 0.06
30754 H 10.311213706313431 109.88457760544753 11.664197499825338 H 0.0 **** 0.06
30755 H 10.050341039215251 110.3744770556508 9.973719356891074 H 0.0 **** 0.06
30756 C 25.175636130652435 21.449036975683413 15.813494870732598 C 0.0 **** -0.24
30757 H 24.351651505858285 20.769723953418335 16.034333700175466 H 0.0 **** 0.06
30758 H 26.121125836121337 20.916833899167244 15.909226626834737 H 0.0 **** 0.06
30759 H 25.154887760125575 22.283120866869794 16.515249218846122 H 0.0 **** 0.06
30760 H 25.071516841964183 21.82669381050502 14.796795799301776 H 0.0 **** 0.06
30761 C 49.92270112065549 85.34768030074818 66.75952072152748 C 0.0 **** -0.24
30762 H 50.68022880491009 85.41989689779172 65.98040967594685 H 0.0 **** 0.06
30763 H 50.39376735960414 85.46498627139934 67.73626765418643 H 0.0 **** 0.06
30764 H 49.438048044815645 84.37261612726692 66.7052450260058 H 0.0 **** 0.06
30765 H 49.17880998746753 86.13138027983703 66.61852832781517 H 0.0 **** 0.06
30766 C 66.5068166359867 47.86815354742487 89.0383969681028 C 0.0 **** -0.24
30767 H 67.3914955053992 47.28639718771683 88.78012891463993 H 0.0 **** 0.06
30768 H 66.79280084263934 48.90529336807401 89.21402329359557 H 0.0 **** 0.06
30769 H 66.05332195812895 47.45751139134984 89.94103156779124 H 0.0 **** 0.06
30770 H 65.78990303958616 47.821739280167776 88.21803470695124 H 0.0 **** 0.06
30771 C 113.71137274248949 13.864327956907083 31.88728601165832 C 0.0 **** -0.24
30772 H 113.37678066730089 14.449282738368073 32.744751282294516 H 0.0 **** 0.06
30773 H 112.91520044257624 13.18796606530362 31.577383142576707 H 0.0 **** 0.06
30774 H 114.59288924420025 13.285652259154496 32.16404165899627 H 0.0 **** 0.06
30775 H 113.960051926376 14.535029736185724 31.065040101628284 H 0.0 **** 0.06
30776 C 65.74646491308152 7.911005393666358 43.42261912958185 C 0.0 **** -0.24
30777 H 65.56088584250631 8.975068614746363 43.56468730405419 H 0.0 **** 0.06
30778 H 65.03532345640858 7.336151092645764 44.0184824643448 H 0.0 **** 0.06
30779 H 66.76170626730789 7.673151065593856 43.73993423047119 H 0.0 **** 0.06
30780 H 65.62679817314134 7.657951655831596 42.36956348132287 H 0.0 **** 0.06
30781 C 90.72584640085938 26.589410580839854 32.29516686858011 C 0.0 **** -0.24
30782 H 90.46510818537081 27.543053074682547 32.75531924332927 H 0.0 **** 0.06
30783 H 91.76288793030534 26.346502315907628 32.52634644944166 H 0.0 **** 0.06
30784 H 90.60106959078996 26.66175292177408 31.21535724376858 H 0.0 **** 0.06
30785 H 90.07373349491252 25.808032577011232 32.68497543931946 H 0.0 **** 0.06
30786 C 1.5092178977619977 100.07220860891366 12.522794760349669 C 0.0 **** -0.24
30787 H 2.194421999749972 100.91529825805176 12.439953366034217 H 0.0 **** 0.06
30788 H 1.9188709549757075 99.21754644147924 11.984311214806468 H 0.0 **** 0.06
30789 H 0.5451969342590406 100.34353740508013 12.093958238393995 H 0.0 **** 0.06
30790 H 1.3794412420841802 99.81190938489615 13.573719571063435 H 0.0 **** 0.06
30791 C 45.829476737265274 0.18118692089396404 70.9503640690987 C 0.0 **** -0.24
30792 H 45.37318054233021 -0.1399413234735789 71.88681375383803 H 0.0 **** 0.06
30793 H 46.5786068815267 -0.5498655338048195 70.64386449173679 H 0.0 **** 0.06
30794 H 46.30423763911733 1.1509903859622455 71.09150854071169 H 0.0 **** 0.06
30795 H 45.06229927952869 0.2600537400984706 70.18049569992246 H 0.0 **** 0.06
30796 C 56.22425243196531 67.70558110186852 18.611736517061914 C 0.0 **** -0.24
30797 H 55.68662208851683 67.37183393082881 19.499601960751534 H 0.0 **** 0.06
30798 H 56.53594139606426 68.7415391251277 18.745207626632695 H 0.0 **** 0.06
30799 H 55.571574615121676 67.63059056557199 17.74211209134321 H 0.0 **** 0.06
30800 H 57.1028277187022 67.07735389142294 18.462667248549106 H 0.0 **** 0.06
30801 C 87.30586111947625 54.459375960235775 55.68131730917531 C 0.0 **** -0.24
30802 H 86.48602754202128 53.7744197825223 55.89808105020202 H 0.0 **** 0.06
30803 H 88.0874867493639 53.929606099214865 55.13630275019858 H 0.0 **** 0.06
30804 H 87.71214954894646 54.84703085267165 56.61604615863408 H 0.0 **** 0.06
30805 H 86.93647628155395 55.28638581638669 55.075382431428096 H 0.0 **** 0.06
30806 C 60.502355158671634 35.033601541467135 91.13985451554274 C 0.0 **** -0.24
30807 H 59.42076672567029 34.97718153810035 91.25762438791585 H 0.0 **** 0.06
30808 H 60.94821309108451 34.08037343245877 91.42648586878906 H 0.0 **** 0.06
30809 H 60.89605364949668 35.824356836760614 91.77816722027652 H 0.0 **** 0.06
30810 H 60.74442918028578 35.250119350303805 90.09985320976733 H 0.0 **** 0.06
30811 C 86.268694823797 34.58501509005589 116.95289821307016 C 0.0 **** -0.24
30812 H 85.9861861513734 34.252638830080116 117.95209963188098 H 0.0 **** 0.06
30813 H 85.60644824796012 35.392831531127 116.64015600466105 H 0.0 **** 0.06
30814 H 86.1815521723324 33.75275750261113 116.25558197088147 H 0.0 **** 0.06
30815 H 87.29756808237406 34.94270188319797 116.96677133920898 H 0.0 **** 0.06
30816 C 90.111649817542 70.60013786982765 39.60329361235918 C 0.0 **** -0.24
30817 H 89.66059022901578 70.86339181667933 38.64558891632649 H 0.0 **** 0.06
30818 H 90.01562278531043 71.43903601161622 40.292420793837124 H 0.0 **** 0.06
30819 H 91.16712477961337 70.36965243690929 39.45521020311645 H 0.0 **** 0.06
30820 H 89.60443712375132 69.72882198600175 40.01656402391836 H 0.0 **** 0.06
30821 C 30.497492773321653 104.18422817712036 50.13074078421096 C 0.0 **** -0.24
30822 H 30.581341995239143 103.09778183272834 50.16317900598206 H 0.0 **** 0.06
30823 H 29.838663333264776 104.52206644991367 50.93153334102158 H 0.0 **** 0.06
30824 H 30.085087102616626 104.48827977378431 49.16867958153858 H 0.0 **** 0.06
30825 H 31.48389842754881 104.62859365509902 50.2596233505686 H 0.0 **** 0.06
30826 C 81.91367694597187 32.81901415661878 33.4995246051127 C 0.0 **** -0.24
30827 H 81.17330347755666 33.61870691880995 33.48171518814456 H 0.0 **** 0.06
30828 H 82.25851091908783 32.66672637384863 34.52307217508411 H 0.0 **** 0.06
30829 H 82.75920211496589 33.09262340708568 32.86801152998987 H 0.0 **** 0.06
30830 H 81.46321056899757 31.898942631374837 33.12623779661118 H 0.0 **** 0.06
30831 C 15.472697941067082 28.646444504308775 66.0798254787639 C 0.0 **** -0.24
30832 H 15.990634861676682 27.755538533472922 66.43647030066776 H 0.0 **** 0.06
30833 H 15.10476918599909 29.218815109510686 66.9312412868104 H 0.0 **** 0.06
30834 H 14.63315756992418 28.350040821171156 65.45082436260432 H 0.0 **** 0.06
30835 H 16.1621509011686 29.259490284366336 65.49921367470515 H 0.0 **** 0.06
30836 C 27.141525336505204 87.47043620414593 70.0458116548146 C 0.0 **** -0.24
30837 H 26.870313629084443 86.72558509363432 69.29693872524828 H 0.0 **** 0.06
30838 H 27.61748653285963 86.97532945621515 70.89325540996009 H 0.0 **** 0.06
30839 H 26.24452822311776 87.98877583587307 70.38357448685628 H 0.0 **** 0.06
30840 H 27.834149731876117 88.18853514775367 69.60826411503123 H 0.0 **** 0.06
30841 C 66.90865682081812 66.63943551639574 69.49204429795188 C 0.0 **** -0.24
30842 H 66.04826006493539 65.97052965589987 69.4626849822026 H 0.0 **** 0.06
30843 H 67.82157928204393 66.05190024584323 69.59168606270941 H 0.0 **** 0.06
30844 H 66.81528542736353 67.31279417484302 70.3439723806103 H 0.0 **** 0.06
30845 H 66.94845868528631 67.22103590539638 68.57148125278138 H 0.0 **** 0.06
30846 C 91.31226261839922 87.11834119430307 26.268740593454368 C 0.0 **** -0.24
30847 H 91.63223073390728 86.08872845617111 26.107112584690128 H 0.0 **** 0.06
30848 H 90.23738146867379 87.13944267524391 26.45260168103846 H 0.0 **** 0.06
30849 H 91.54154239546367 87.71219919137502 25.38467105037182 H 0.0 **** 0.06
30850 H 91.8370308241008 87.5307600191523 27.13006780693331 H 0.0 **** 0.06
30851 C 22.62320408526128 2.250170328741717 36.92925345266755 C 0.0 **** -0.24
30852 H 22.484242072544745 2.663525230373722 37.92821884429195 H 0.0 **** 0.06
30853 H 22.208573878432965 2.9365400424139807 36.19123857973824 H 0.0 **** 0.06
30854 H 22.112982968962584 1.2898496162084143 36.85929581025543 H 0.0 **** 0.06
30855 H 23.688041135901223 2.1101970780204056 36.739053020731816 H 0.0 **** 0.06
30856 C 19.291296718348974 35.97237386962361 62.87117793975358 C 0.0 **** -0.24
30857 H 19.72167420974276 36.973847826676995 62.85069071728131 H 0.0 **** 0.06
30858 H 18.334051073769785 35.99820744025732 63.39115575516138 H 0.0 **** 0.06
30859 H 19.970230217613476 35.29618017094156 63.391525904412816 H 0.0 **** 0.06
30860 H 19.141630542908644 35.62053176205592 61.85003016137918 H 0.0 **** 0.06
30861 C 39.81873437110545 53.440009685187306 12.595244712155207 C 0.0 **** -0.24
30862 H 40.681431150462515 52.78928796869104 12.449192881428075 H 0.0 **** 0.06
30863 H 39.854850887025975 53.87212753199793 13.595871216966387 H 0.0 **** 0.06
30864 H 38.90348614088094 52.85995813203414 12.481576858709843 H 0.0 **** 0.06
30865 H 39.83732834648333 54.23893237491495 11.853212074400986 H 0.0 **** 0.06
30866 C 54.209739288031244 89.92579990793237 40.458861937959206 C 0.0 **** -0.24
30867 H 53.30910431195838 89.35730494019259 40.69272457835454 H 0.0 **** 0.06
30868 H 55.01421818424302 89.62372635694004 41.130013850769906 H 0.0 **** 0.06
30869 H 54.00976512635543 90.99006119089856 40.58601486506284 H 0.0 **** 0.06
30870 H 54.50376064842487 89.73220160529468 39.42743201450988 H 0.0 **** 0.06
30871 C 74.9905284690326 88.82150818274292 41.70571074138971 C 0.0 **** -0.24
30872 H 75.43856630554558 89.01954243746314 42.67973083024782 H 0.0 **** 0.06
30873 H 74.00671453847633 89.28918742554623 41.657070259507435 H 0.0 **** 0.06
30874 H 74.88836701120226 87.74579403961931 41.564467491831124 H 0.0 **** 0.06
30875 H 75.62721668129291 89.23236519642887 40.922880530390415 H 0.0 **** 0.06
30876 C 90.82085815396115 96.83311109914544 20.16112912066916 C 0.0 **** -0.24
30877 H 90.01496955472476 97.51729900719923 19.895044440508173 H 0.0 **** 0.06
30878 H 91.62979296432846 97.39169331859273 20.63092682946302 H 0.0 **** 0.06
30879 H 91.19118812696149 96.34230702505559 19.26102543328949 H 0.0 **** 0.06
30880 H 90.44463217158591 96.08228996743568 20.856267402312596 H 0.0 **** 0.06
30881 C 102.27630079217678 22.58600553938932 72.72201149927315 C 0.0 **** -0.24
30882 H 101.93932930353236 23.404707499601443 72.08644886231 H 0.0 **** 0.06
30883 H 103.3331791782619 22.392785487148984 72.53448886345242 H 0.0 **** 0.06
30884 H 101.69768818601867 21.690359482425123 72.49756302436245 H 0.0 **** 0.06
30885 H 102.13578912813603 22.85643517115895 73.76839758385862 H 0.0 **** 0.06
30886 C 76.572201291489 61.348036323618715 114.03435574127036 C 0.0 **** -0.24
30887 H 77.52321158148345 61.51106464925121 113.5289651359144 H 0.0 **** 0.06
30888 H 75.80372170154448 61.968290862773046 113.57338613682134 H 0.0 **** 0.06
30889 H 76.66968290449611 61.61355326018506 115.08717703673867 H 0.0 **** 0.06
30890 H 76.29090156143391 60.29778628812298 113.94939122827645 H 0.0 **** 0.06
30891 C 24.94086929635361 63.89702970183021 29.299178605423904 C 0.0 **** -0.24
30892 H 24.8166343806447 62.842465591438064 29.05346987360079 H 0.0 **** 0.06
30893 H 23.987887765516547 64.30689466104803 29.633777600211175 H 0.0 **** 0.06
30894 H 25.28020611565553 64.4382259537243 28.415870777222864 H 0.0 **** 0.06
30895 H 25.680082340408575 63.99989159076588 30.094496882058422 H 0.0 **** 0.06
30896 C 78.53266543242725 27.9609496526368 106.78815821005458 C 0.0 **** -0.24
30897 H 78.90610161580727 27.251342897789783 107.52662774441151 H 0.0 **** 0.06
30898 H 78.09316738790778 27.41647829685928 105.95157225410102 H 0.0 **** 0.06
30899 H 79.35637353590488 28.57746469796109 106.42807247460627 H 0.0 **** 0.06
30900 H 77.77563101035696 28.597244107511045 107.24623222396087 H 0.0 **** 0.06
30901 C 9.921563161764766 5.15876104976482 95.45768610789978 C 0.0 **** -0.24
30902 H 10.004075122817767 5.298881124610261 94.38075779102061 H 0.0 **** 0.06
30903 H 10.551876046984347 5.886843261258065 95.96853299737566 H 0.0 **** 0.06
30904 H 10.246453563034066 4.15058729454654 95.71831914646754 H 0.0 **** 0.06
30905 H 8.884889405956201 5.29666884290873 95.7639449834889 H 0.0 **** 0.06
30906 C 98.17009272263738 5.579794934454867 109.15609857392042 C 0.0 **** -0.24
30907 H 98.83418986378783 5.332423480487321 108.32742133386722 H 0.0 **** 0.06
30908 H 98.14095799835164 6.661497185080719 109.28675450385944 H 0.0 **** 0.06
30909 H 98.54026881675907 5.112184317579263 110.06933054449311 H 0.0 **** 0.06
30910 H 97.16759016264754 5.211077331222114 108.9406375017079 H 0.0 **** 0.06
30911 C 68.30515330416605 67.27372994293145 64.97844620511825 C 0.0 **** -0.24
30912 H 67.78637487698745 68.04179638164828 65.55325011753277 H 0.0 **** 0.06
30913 H 68.55592232866289 66.43873975236636 65.6322923783984 H 0.0 **** 0.06
30914 H 69.21796308119272 67.69166291543291 64.55472002996132 H 0.0 **** 0.06
30915 H 67.65748286714319 66.92356529060416 64.17329875131347 H 0.0 **** 0.06
30916 C 117.37909415596302 81.33823189499523 19.36155092438027 C 0.0 **** -0.24
30917 H 118.41443894100559 80.9991055616535 19.31562564706821 H 0.0 **** 0.06
30918 H 117.22123256742542 82.12015402847308 18.618812707883944 H 0.0 **** 0.06
30919 H 117.17044950026948 81.73247488940672 20.35559638548456 H 0.0 **** 0.06
30920 H 116.71332757297539 80.49998408989478 19.15584956273035 H 0.0 **** 0.06
30921 C 48.5259181405595 89.1282024468824 59.82134491848768 C 0.0 **** -0.24
30922 H 49.13185027282685 89.1454038750554 60.727411664916644 H 0.0 **** 0.06
30923 H 47.499724731922015 88.86139091440594 60.07601592769373 H 0.0 **** 0.06
30924 H 48.93080050867877 88.39184766264401 59.12745556037373 H 0.0 **** 0.06
30925 H 48.54069122322312 90.11344073823568 59.355947454307 H 0.0 **** 0.06
30926 C 38.12504321878569 20.572606355023197 90.88979417846068 C 0.0 **** -0.24
30927 H 37.28969630996633 21.118499185276733 91.3285733283573 H 0.0 **** 0.06
30928 H 37.88472254569595 19.509378361572686 90.85347805745675 H 0.0 **** 0.06
30929 H 39.01676251193507 20.723350208246245 91.49838235758759 H 0.0 **** 0.06
30930 H 38.30809316572362 20.939235510314887 89.87983460537097 H 0.0 **** 0.06
30931 C 104.36546318681769 45.04625891162387 40.340563018342436 C 0.0 **** -0.24
30932 H 104.4434753072434 43.97813800448891 40.139224072587695 H 0.0 **** 0.06
30933 H 103.37337212307187 45.398110528322775 40.05481588611792 H 0.0 **** 0.06
30934 H 105.12030925982191 45.580391046780015 39.7635787624742 H 0.0 **** 0.06
30935 H 104.52357383018827 45.22875722423949 41.40301767700737 H 0.0 **** 0.06
30936 C 11.508700163311858 16.888028487439527 54.76596755726334 C 0.0 **** -0.24
30937 H 12.064073678563744 16.427171241348532 53.94936214374434 H 0.0 **** 0.06
30938 H 10.715131616853569 17.514426122816218 54.357518559658075 H 0.0 **** 0.06
30939 H 12.184206629406617 17.50113489165429 55.363400550188295 H 0.0 **** 0.06
30940 H 11.07321019904191 16.11063288571532 55.39253203872159 H 0.0 **** 0.06
30941 C 57.8295240534053 61.18056380085833 113.69846577608577 C 0.0 **** -0.24
30942 H 58.21012533155103 62.19707545545146 113.79518318680331 H 0.0 **** 0.06
30943 H 57.375549372493005 60.87073415846054 114.6400910670924 H 0.0 **** 0.06
30944 H 58.65117696006002 60.507178067916065 113.45202755943372 H 0.0 **** 0.06
30945 H 57.081826900676354 61.1464164948627 112.90559343889312 H 0.0 **** 0.06
30946 C 46.67224325869307 22.780838169096924 94.01687604632968 C 0.0 **** -0.24
30947 H 47.36469025868877 23.368274241671884 93.41279272198142 H 0.0 **** 0.06
30948 H 45.69711975920646 22.755125788780077 93.5298066034552 H 0.0 **** 0.06
30949 H 46.57469718377703 23.234836983665303 95.00291884338446 H 0.0 **** 0.06
30950 H 47.05341662957335 21.764479194095443 94.12006477025648 H 0.0 **** 0.06
30951 C 51.19781103208274 101.8896491533157 12.119290450613779 C 0.0 **** -0.24
30952 H 51.329837557329796 102.39263945090039 13.07644312220912 H 0.0 **** 0.06
30953 H 51.99330174186059 102.18990662541208 11.437708822454276 H 0.0 **** 0.06
30954 H 50.23227471673036 102.16508109752519 11.694206365920966 H 0.0 **** 0.06
30955 H 51.23443882163005 100.81071677915739 12.26877920461892 H 0.0 **** 0.06
30956 C 4.63779532372817 31.388139121075227 12.406720652780251 C 0.0 **** -0.24
30957 H 5.353028008274066 31.367187733681533 13.229095766077705 H 0.0 **** 0.06
30958 H 4.39200458143921 30.366873792100016 12.113792892947231 H 0.0 **** 0.06
30959 H 5.076102566777081 31.914798468817445 11.558987638660113 H 0.0 **** 0.06
30960 H 3.7319610555163365 31.903638947214148 12.726532790666596 H 0.0 **** 0.06
30961 C 93.42325438468922 3.879165792558391 35.322875882956055 C 0.0 **** -0.24
30962 H 93.725926710869 3.284460033170408 36.18454291355667 H 0.0 **** 0.06
30963 H 92.57933167016026 4.512453101680382 35.5961014198152 H 0.0 **** 0.06
30964 H 93.1307784718135 3.2151760300406877 34.50849016634595 H 0.0 **** 0.06
30965 H 94.25736415745797 4.5027464130110975 35.00113893103767 H 0.0 **** 0.06
30966 C 51.94120112322217 67.85359411171638 100.82489056547155 C 0.0 **** -0.24
30967 H 52.02621520930328 68.70560336652372 100.14946145945191 H 0.0 **** 0.06
30968 H 52.87769144509923 67.29556059176366 100.82465562464068 H 0.0 **** 0.06
30969 H 51.13180778370412 67.2050752504671 100.49043392292316 H 0.0 **** 0.06
30970 H 51.72934749909252 68.2092581403628 101.83337493741868 H 0.0 **** 0.06
30971 C 65.65307031856409 104.6054682702798 87.85358426128758 C 0.0 **** -0.24
30972 H 64.62643107647534 104.55412933569534 88.21832915978143 H 0.0 **** 0.06
30973 H 65.71766148260642 105.34179906257356 87.05267946197228 H 0.0 **** 0.06
30974 H 65.95166527758619 103.6272623897325 87.47455264110465 H 0.0 **** 0.06
30975 H 66.31408345264154 104.89613317819823 88.66951689486277 H 0.0 **** 0.06
30976 C 84.64789068391056 92.93693512517174 102.34819941569663 C 0.0 **** -0.24
30977 H 85.27460884530453 93.01325047173376 101.46000639207261 H 0.0 **** 0.06
30978 H 85.19446804413619 93.31327756563715 103.21272420269923 H 0.0 **** 0.06
30979 H 84.37933946262538 91.89355030326436 102.5133627322744 H 0.0 **** 0.06
30980 H 83.74218523666673 93.52719266010513 102.20450067565594 H 0.0 **** 0.06
30981 C 3.647461976349611 5.428345885488625 19.564494928367065 C 0.0 **** -0.24
30982 H 2.835225493066904 5.755049938617503 18.91558130243956 H 0.0 **** 0.06
30983 H 3.7829458068974144 4.351718279912461 19.461953748098537 H 0.0 **** 0.06
30984 H 3.4050942759488407 5.667390386381385 20.599634123035987 H 0.0 **** 0.06
30985 H 4.567534424632148 5.940243038733058 19.279376239362822 H 0.0 **** 0.06
30986 C 25.66834745468985 30.21068210633217 55.472520991866446 C 0.0 **** -0.24
30987 H 26.005642851069865 31.078348272674162 56.039607241280436 H 0.0 **** 0.06
30988 H 25.085064870284967 29.557646331280807 56.122361220734746 H 0.0 **** 0.06
30989 H 26.532967901860587 29.66819673454725 55.09154644097049 H 0.0 **** 0.06
30990 H 25.049353113963292 30.540686782801387 54.637686552134085 H 0.0 **** 0.06
30991 C 115.29898408236664 48.95957606573657 20.267340891438067 C 0.0 **** -0.24
30992 H 114.73221447063622 49.3214126630663 19.409244116248402 H 0.0 **** 0.06
30993 H 115.36332475378168 47.871899215559694 20.228060448667463 H 0.0 **** 0.06
30994 H 114.79782647724511 49.26185814592486 21.18698983472453 H 0.0 **** 0.06
30995 H 116.30290024272074 49.38407360021668 20.24406464110382 H 0.0 **** 0.06
30996 C 18.322344054363015 8.09148161768281 52.065345719312006 C 0.0 **** -0.24
30997 H 18.681226035068363 8.838904913936712 52.772125489378084 H 0.0 **** 0.06
30998 H 17.31413401045228 8.350675915228699 51.74274787153587 H 0.0 **** 0.06
30999 H 18.310312557604988 7.113340356242272 52.546080032206135 H 0.0 **** 0.06
31000 H 18.98501460401596 8.062487879307426 51.20031237663392 H 0.0 **** 0.06
31001 C 117.41203733059501 21.063936708050846 35.81599431402407 C 0.0 **** -0.24
31002 H 118.3625050684483 20.549531386932983 35.67617377952428 H 0.0 **** 0.06
31003 H 116.79405367142213 20.934242622817862 34.92593904854158 H 0.0 **** 0.06
31004 H 117.59464338785506 22.1260619193896 35.97965750658568 H 0.0 **** 0.06
31005 H 116.89571183741239 20.646363310849154 36.680398742120076 H 0.0 **** 0.06
31006 C 7.542378431151704 84.16439037148803 38.481829946696365 C 0.0 **** -0.24
31007 H 7.105108308768607 84.24180243030935 39.47700769546668 H 0.0 **** 0.06
31008 H 7.127768041050956 83.29559645424183 37.96931165650116 H 0.0 **** 0.06
31009 H 8.623048025235832 84.05425233805818 38.56739491711306 H 0.0 **** 0.06
31010 H 7.312592517090565 85.06587249594577 37.913675925282064 H 0.0 **** 0.06
31011 C 69.17818303190734 106.70730499072786 3.5113252596019464 C 0.0 **** -0.24
31012 H 68.85922534964348 107.70577385498126 3.808280509271327 H 0.0 **** 0.06
31013 H 69.87038887232197 106.31127465653515 4.25592968753412 H 0.0 **** 0.06
31014 H 69.67544681875665 106.75693567425606 2.5431227833493324 H 0.0 **** 0.06
31015 H 68.30808479511933 106.05427069548816 3.4407783945227806 H 0.0 **** 0.06
31016 C 110.21424348087598 110.15848384547293 18.650076528972278 C 0.0 **** -0.24
31017 H 109.97990314513913 110.52188922696227 19.650604739997164 H 0.0 **** 0.06
31018 H 109.4035072023248 110.42139461699607 17.968729824880796 H 0.0 **** 0.06
31019 H 110.33132159816164 109.07487657216893 18.674968014376446 H 0.0 **** 0.06
31020 H 111.14104773594038 110.61639740525604 18.305571712145024 H 0.0 **** 0.06
31021 C 7.80697918950294 24.1575643755261 24.367614549090774 C 0.0 **** -0.24
31022 H 8.79862696220485 24.43797830424466 24.011319247477445 H 0.0 **** 0.06
31023 H 7.078563380562045 24.89763182938279 24.03426605449465 H 0.0 **** 0.06
31024 H 7.811601146486865 24.11709450874939 25.45722523366578 H 0.0 **** 0.06
31025 H 7.540724616889804 23.180067849161027 23.967990356985467 H 0.0 **** 0.06
31026 C 49.96550440029457 88.71936405024036 64.1190670332092 C 0.0 **** -0.24
31027 H 50.487152555213335 87.78235328377181 63.92158373276553 H 0.0 **** 0.06
31028 H 50.65530702516389 89.42905480612148 64.57547794590238 H 0.0 **** 0.06
31029 H 49.131577315101005 88.5344853050332 64.79633953942567 H 0.0 **** 0.06
31030 H 49.58873152883718 89.12800087356717 63.182001050130424 H 0.0 **** 0.06
31031 C 60.69629021884831 47.35843771348878 90.8975610866355 C 0.0 **** -0.24
31032 H 60.350826202771195 48.320024178327685 90.51766153931732 H 0.0 **** 0.06
31033 H 60.43451603147735 47.27035688978604 91.95257515522815 H 0.0 **** 0.06
31034 H 61.77835433438894 47.29089746527316 90.7842026108591 H 0.0 **** 0.06
31035 H 60.220657917082654 46.553654116850595 90.33678139605081 H 0.0 **** 0.06
31036 C 51.53844246960544 18.649245174866138 95.55727106399445 C 0.0 **** -0.24
31037 H 51.6492956181102 17.960125902382146 94.72017742222036 H 0.0 **** 0.06
31038 H 50.654044583691324 18.379223654585587 96.1357582478064 H 0.0 **** 0.06
31039 H 51.428432294416766 19.665391222403727 95.17892793553119 H 0.0 **** 0.06
31040 H 52.42134990686968 18.591490816820993 96.19436093063277 H 0.0 **** 0.06
31041 C 42.329104922684714 37.629307223222625 74.40876557920672 C 0.0 **** -0.24
31042 H 42.80355845428199 36.82613224097802 74.97399690884225 H 0.0 **** 0.06
31043 H 43.082430822255596 38.15279247958533 73.8210575084654 H 0.0 **** 0.06
31044 H 41.85508361563526 38.32687947757671 75.09801170202056 H 0.0 **** 0.06
31045 H 41.57569891821421 37.20709158912343 73.74231450550349 H 0.0 **** 0.06
31046 C 114.27354506534748 107.72268760411947 92.81577895106787 C 0.0 **** -0.24
31047 H 114.80616521750532 107.37321156335582 91.9310920786217 H 0.0 **** 0.06
31048 H 114.3036243351703 108.81178760187748 92.8504778001718 H 0.0 **** 0.06
31049 H 114.74742760456766 107.3165186156373 93.70939221186575 H 0.0 **** 0.06
31050 H 113.23690060461281 107.38903849763295 92.76971265736418 H 0.0 **** 0.06
31051 C 20.081441386862117 44.137002726275966 60.99529743284768 C 0.0 **** -0.24
31052 H 20.443808243818335 43.531195001579846 60.165544605325664 H 0.0 **** 0.06
31053 H 20.27982409101061 43.62125252457983 61.935374908248605 H 0.0 **** 0.06
31054 H 19.008211449629783 44.29637564201323 60.88770381992103 H 0.0 **** 0.06
31055 H 20.59357889167747 45.10003152450932 60.99297933898566 H 0.0 **** 0.06
31056 C 77.4126329060663 6.287110928560509 105.25246334837848 C 0.0 **** -0.24
31057 H 76.44744269397154 6.69719796091664 105.54814729503383 H 0.0 **** 0.06
31058 H 78.16267106382855 6.549311252539724 105.99886628247702 H 0.0 **** 0.06
31059 H 77.70141477555487 6.69814275243445 104.28529354903606 H 0.0 **** 0.06
31060 H 77.33818389975804 5.201490715977258 105.17773208198182 H 0.0 **** 0.06
31061 C 59.74116492785634 21.660018797829537 28.919347611165577 C 0.0 **** -0.24
31062 H 60.573026931908394 21.757915345119955 28.220391561426638 H 0.0 **** 0.06
31063 H 59.158374557942544 22.58078384195801 28.920975366743846 H 0.0 **** 0.06
31064 H 60.12768347372131 21.471990791330313 29.920523616302475 H 0.0 **** 0.06
31065 H 59.10638994004618 20.828361834607676 28.61199433627546 H 0.0 **** 0.06
31066 C 71.56984716336379 13.15625697011895 40.37246139472211 C 0.0 **** -0.24
31067 H 71.46420708849979 13.961637559952184 39.64660068802024 H 0.0 **** 0.06
31068 H 71.02792839266172 13.413156356761046 41.28328541115097 H 0.0 **** 0.06
31069 H 72.62499116249066 13.01269207262407 40.60549967263931 H 0.0 **** 0.06
31070 H 71.16132554452213 12.234906004698885 39.95487885829246 H 0.0 **** 0.06
31071 C 112.44668306830998 29.723753181938662 13.47657609963639 C 0.0 **** -0.24
31072 H 111.53316570255573 29.204060523939205 13.765404989949786 H 0.0 **** 0.06
31073 H 112.72980616743426 29.42584493981829 12.466413918870103 H 0.0 **** 0.06
31074 H 113.24579903138947 29.464138252423254 14.170022032650422 H 0.0 **** 0.06
31075 H 112.27623957598992 30.79958081811523 13.504133865368743 H 0.0 **** 0.06
31076 C 96.81672462538893 26.833401213136426 71.97029867542358 C 0.0 **** -0.24
31077 H 97.82803520201105 26.551234709454945 71.68103680404207 H 0.0 **** 0.06
31078 H 96.33712509138735 27.363512710697734 71.14692166095381 H 0.0 **** 0.06
31079 H 96.85717028977302 27.481999826853837 72.84606041492523 H 0.0 **** 0.06
31080 H 96.24318165251634 25.93712716924098 72.208178706626 H 0.0 **** 0.06
31081 C 23.286946760692445 75.95585660068508 29.879371097137252 C 0.0 **** -0.24
31082 H 24.29280541167202 76.31769336542882 30.090920287177738 H 0.0 **** 0.06
31083 H 23.19900395944785 74.91811253870605 30.200803651093437 H 0.0 **** 0.06
31084 H 23.094253419218575 76.02287021974476 28.808159596283957 H 0.0 **** 0.06
31085 H 22.56126322249085 76.56623118227239 30.416829781912867 H 0.0 **** 0.06
31086 C 65.65408285804926 14.623284441373912 40.01001828213558 C 0.0 **** -0.24
31087 H 64.9860066923948 14.831657728969958 39.17320857259595 H 0.0 **** 0.06
31088 H 65.1246447723453 14.032801116579392 40.75893311575579 H 0.0 **** 0.06
31089 H 65.9833773902071 15.56216754723134 40.454137792792906 H 0.0 **** 0.06
31090 H 66.51998289271887 14.066479462590635 39.65300726532056 H 0.0 **** 0.06
31091 C 46.44660008110992 20.98279164874151 50.13907716359941 C 0.0 **** -0.24
31092 H 47.19453850991303 21.40402744485351 50.81179713223872 H 0.0 **** 0.06
31093 H 45.530527611832525 21.570384591404064 50.200284513910475 H 0.0 **** 0.06
31094 H 46.238373648392496 19.952380350936977 50.4273702195259 H 0.0 **** 0.06
31095 H 46.82528888108206 21.003805476239023 49.11736254577818 H 0.0 **** 0.06
31096 C 81.76788378271331 111.82695655569754 43.92300004014248 C 0.0 **** -0.24
31097 H 81.40932243660905 110.79816543233994 43.89372310185482 H 0.0 **** 0.06
31098 H 82.57382446217082 111.95161424943097 43.19919778773685 H 0.0 **** 0.06
31099 H 82.13857321067579 112.05370021023712 44.92342561178971 H 0.0 **** 0.06
31100 H 80.94998527678445 112.50416154760228 43.677875631526945 H 0.0 **** 0.06
31101 C 102.79095330525075 87.72001346439353 12.67677045483353 C 0.0 **** -0.24
31102 H 103.53242446902956 88.26043763890061 13.264310012592318 H 0.0 **** 0.06
31103 H 103.1301921970414 87.64605643920368 11.643117730777163 H 0.0 **** 0.06
31104 H 101.84120955996326 88.2535165449716 12.70940214439483 H 0.0 **** 0.06
31105 H 102.66021131760374 86.71903384531143 13.089287084461745 H 0.0 **** 0.06
31106 C 35.13253829799072 110.09722534735283 19.08601575097822 C 0.0 **** -0.24
31107 H 35.98411546572203 110.32938864632143 18.4460093965329 H 0.0 **** 0.06
31108 H 34.27315978992294 110.69069743741238 18.774525770810357 H 0.0 **** 0.06
31109 H 35.381479698737905 110.33415576816535 20.12074845248165 H 0.0 **** 0.06
31110 H 34.893863490133015 109.03738016124245 19.002057195618903 H 0.0 **** 0.06
31111 C 66.00836293424197 30.741961971052092 35.75159828504552 C 0.0 **** -0.24
31112 H 66.3419850387505 31.75724425719693 35.53707616225961 H 0.0 **** 0.06
31113 H 66.78246704779465 30.034983993765024 35.45164398118149 H 0.0 **** 0.06
31114 H 65.09321137819913 30.53655973117702 35.19619201714818 H 0.0 **** 0.06
31115 H 65.81615392766153 30.64070666806441 36.8190000553935 H 0.0 **** 0.06
31116 C 74.84197664590266 22.540488428954617 8.652588125403142 C 0.0 **** -0.24
31117 H 74.03895458875263 22.77559728433973 7.9533806995932075 H 0.0 **** 0.06
31118 H 74.41563609367682 22.301549602843245 9.627438167124431 H 0.0 **** 0.06
31119 H 75.50428047979261 23.401151022682768 8.746156832156899 H 0.0 **** 0.06
31120 H 75.40678826026362 21.68534765922979 8.283079535459056 H 0.0 **** 0.06
31121 C 101.18403288006934 69.53134550980747 104.65526927055717 C 0.0 **** -0.24
31122 H 100.77011494056427 68.55972348826424 104.92508431874401 H 0.0 **** 0.06
31123 H 100.48001456750632 70.31596000243701 104.93444474773378 H 0.0 **** 0.06
31124 H 101.35939193640073 69.56533225908947 103.57934466611636 H 0.0 **** 0.06
31125 H 102.12614862841349 69.68311960728283 105.18172068306097 H 0.0 **** 0.06
31126 C 101.75749681948614 76.40437565733748 74.64782611110746 C 0.0 **** -0.24
31127 H 102.29044487285665 75.5777313456046 75.11716298064434 H 0.0 **** 0.06
31128 H 100.73020999249394 76.42828207469884 75.01324902347233 H 0.0 **** 0.06
31129 H 101.7550742270019 76.26791658795088 73.56625288580668 H 0.0 **** 0.06
31130 H 102.25267292077845 77.34295165142859 74.89495815742359 H 0.0 **** 0.06
31131 C 104.73278082851962 73.80182836955873 65.8269417338395 C 0.0 **** -0.24
31132 H 105.22380503107158 74.72991058151806 65.5327763710855 H 0.0 **** 0.06
31133 H 105.47049551970244 73.11874926405636 66.2483080292439 H 0.0 **** 0.06
31134 H 104.26940610572723 73.34361057131053 64.9530087246508 H 0.0 **** 0.06
31135 H 103.96786703239817 74.01777602420685 66.5731006219188 H 0.0 **** 0.06
31136 C 56.52889165565322 112.31246411024969 114.92641720575466 C 0.0 **** -0.24
31137 H 56.82118163558932 111.49894480356285 115.5906404319664 H 0.0 **** 0.06
31138 H 55.54146076874893 112.10516025849255 114.51177394643803 H 0.0 **** 0.06
31139 H 57.252970074128974 112.39703553011297 114.11549320010617 H 0.0 **** 0.06
31140 H 56.49944481389024 113.24710954816248 115.48598339968807 H 0.0 **** 0.06
31141 C 55.46125446269382 103.61098592319877 51.10232258241899 C 0.0 **** -0.24
31142 H 55.71783920150535 104.66526945100293 51.21214589794215 H 0.0 **** 0.06
31143 H 55.42170842288083 103.35561389236835 50.04329670065425 H 0.0 **** 0.06
31144 H 54.48729605312096 103.42597593425205 51.55684097174469 H 0.0 **** 0.06
31145 H 56.215351222591984 102.99940367302736 51.59619879133058 H 0.0 **** 0.06
31146 C 47.99929494283535 17.8416581190736 80.14607959120659 C 0.0 **** -0.24
31147 H 47.11961348786025 18.001971712424563 80.77014666397622 H 0.0 **** 0.06
31148 H 48.67356739622568 18.69256278119775 80.24405660016538 H 0.0 **** 0.06
31149 H 47.69204453589609 17.73855851261993 79.10560268140893 H 0.0 **** 0.06
31150 H 48.51042413508907 16.933541286719247 80.46580031255587 H 0.0 **** 0.06
31151 C 79.63317058740085 87.81535209584462 106.16066329224208 C 0.0 **** -0.24
31152 H 79.2314324191469 88.75070976519328 105.77084147097486 H 0.0 **** 0.06
31153 H 79.67929173556547 87.86617459038311 107.2489521051755 H 0.0 **** 0.06
31154 H 80.63509138222344 87.65683200058618 105.76128165570123 H 0.0 **** 0.06
31155 H 78.98733967449587 86.99081742182742 105.86148361958601 H 0.0 **** 0.06
31156 C 7.686064309695524 31.0213876854948 90.96042275882019 C 0.0 **** -0.24
31157 H 8.24165106614113 31.249439612845265 90.05127194999557 H 0.0 **** 0.06
31158 H 8.248844613861849 30.304365251002082 91.5595786885194 H 0.0 **** 0.06
31159 H 6.717399516871822 30.595505373223943 90.69806542839672 H 0.0 **** 0.06
31160 H 7.537745847750983 31.935933907995093 91.53418610760903 H 0.0 **** 0.06
31161 C 94.54857628078284 64.75876352974092 80.75425313390136 C 0.0 **** -0.24
31162 H 95.45954996311104 64.20307351643504 80.97436917295263 H 0.0 **** 0.06
31163 H 93.97933251105968 64.9019326971318 81.6730075739803 H 0.0 **** 0.06
31164 H 93.94738230769528 64.20111439695708 80.03632569711286 H 0.0 **** 0.06
31165 H 94.80878279554912 65.73013674863395 80.33334313379012 H 0.0 **** 0.06
31166 C 3.575071338457647 102.4524815933595 4.354658225904245 C 0.0 **** -0.24
31167 H 3.9781740725932195 102.86928444043244 3.4321014004187873 H 0.0 **** 0.06
31168 H 2.4867230089957104 102.51953570390782 4.33776744730261 H 0.0 **** 0.06
31169 H 3.9614826406760812 103.01466828831184 5.2054237971672705 H 0.0 **** 0.06
31170 H 3.8740646010107014 101.40777838903986 4.442918305756393 H 0.0 **** 0.06
31171 C 79.01401333482897 66.56407250833306 29.77226212401675 C 0.0 **** -0.24
31172 H 78.04266011320783 66.15699645765184 30.05276268776015 H 0.0 **** 0.06
31173 H 78.99966439865614 67.64810135909872 29.885306929399718 H 0.0 **** 0.06
31174 H 79.22832883999467 66.30910265579621 28.734741152625503 H 0.0 **** 0.06
31175 H 79.78429220469008 66.14006708240623 30.417064013093622 H 0.0 **** 0.06
31176 C 5.606962942695873 82.36936553715032 18.1709461852883 C 0.0 **** -0.24
31177 H 5.003136208668138 81.71309822859394 17.54395249912244 H 0.0 **** 0.06
31178 H 6.223218224415774 83.00871913119957 17.538971526795137 H 0.0 **** 0.06
31179 H 6.246576329706741 81.76849892228898 18.816708169316485 H 0.0 **** 0.06
31180 H 4.951255897681193 82.9890298574939 18.78401638460153 H 0.0 **** 0.06
31181 C 99.10000313054806 2.4458970628345327 78.93264267438491 C 0.0 **** -0.24
31182 H 99.30729887221293 1.480699106933784 79.39445208924158 H 0.0 **** 0.06
31183 H 99.42930700239461 3.2444202272480567 79.59754138027364 H 0.0 **** 0.06
31184 H 98.0292271477293 2.540209981747495 78.75266094653983 H 0.0 **** 0.06
31185 H 99.63561488901499 2.5166431706469297 77.9853424740378 H 0.0 **** 0.06
31186 C 44.16111596253387 115.4066521584251 18.96994199089204 C 0.0 **** -0.24
31187 H 44.44802798252442 114.99442440167081 18.001757386537292 H 0.0 **** 0.06
31188 H 43.31537791245984 114.8450417494097 19.36736430893569 H 0.0 **** 0.06
31189 H 43.88055408377369 116.4526650020835 18.850586748795962 H 0.0 **** 0.06
31190 H 45.003332365732774 115.3323726214521 19.659304569515115 H 0.0 **** 0.06
31191 C 36.645050068630866 21.146982986937775 81.19993660416077 C 0.0 **** -0.24
31192 H 37.6452293634635 21.247815734365883 81.62238749652875 H 0.0 **** 0.06
31193 H 36.53713576633566 21.82785438175337 80.35578957934575 H 0.0 **** 0.06
31194 H 35.90405246077007 21.390865499897842 81.9616369860571 H 0.0 **** 0.06
31195 H 36.4960482711603 20.12139511393075 80.8623547001186 H 0.0 **** 0.06
31196 C 24.596676991643676 85.52605572734754 5.118299096503833 C 0.0 **** -0.24
31197 H 24.275815987493417 86.55699977665785 5.26614403642386 H 0.0 **** 0.06
31198 H 25.47853814585642 85.50831749324178 4.476747137863148 H 0.0 **** 0.06
31199 H 23.792948649547554 84.95951889927636 4.6488107575157755 H 0.0 **** 0.06
31200 H 24.84017883592358 85.07909496383039 6.083016460920247 H 0.0 **** 0.06
31201 C 112.70181229591654 65.00266206916521 79.3302695981672 C 0.0 **** -0.24
31202 H 113.53769871291527 64.40771548076924 78.96123969712431 H 0.0 **** 0.06
31203 H 112.51114608619442 65.8265383881029 78.64199870663819 H 0.0 **** 0.06
31204 H 112.946107966228 65.39935104439141 80.31558225859834 H 0.0 **** 0.06
31205 H 111.81377358542842 64.37471941964034 79.40070278710698 H 0.0 **** 0.06
31206 C 77.08766202146222 108.57885425567275 2.083907407199888 C 0.0 **** -0.24
31207 H 76.74832114598524 109.61458886248363 2.0617222640150317 H 0.0 **** 0.06
31208 H 77.51927490504818 108.35868348794634 3.060453739357399 H 0.0 **** 0.06
31209 H 77.84028716567747 108.42524700370063 1.3107523409622388 H 0.0 **** 0.06
31210 H 76.24068315386907 107.91560718365773 1.9027395154108433 H 0.0 **** 0.06
31211 C 35.67314850989681 115.83042710307625 9.362063900412636 C 0.0 **** -0.24
31212 H 35.99720389532305 114.94476129451611 8.814407233674501 H 0.0 **** 0.06
31213 H 35.72527035484781 116.70122467654429 8.70797330140772 H 0.0 **** 0.06
31214 H 36.32289663634876 115.98305574095417 10.223173866956017 H 0.0 **** 0.06
31215 H 34.646204980975064 115.69153362935988 9.701064199720065 H 0.0 **** 0.06
31216 C 36.7280638665989 53.16446925404912 25.91779677944507 C 0.0 **** -0.24
31217 H 37.34244082495633 52.41921367386941 26.42286967946893 H 0.0 **** 0.06
31218 H 37.35894671540095 53.989718224716455 25.58418222911601 H 0.0 **** 0.06
31219 H 35.97228176713955 53.54045796375257 26.607585510823327 H 0.0 **** 0.06
31220 H 36.24015182417284 52.71006502110045 25.056306141380645 H 0.0 **** 0.06
31221 C 111.9496903377856 110.96853196762912 62.49211839075614 C 0.0 **** -0.24
31222 H 111.7955703754549 111.99180552452577 62.833758263133866 H 0.0 **** 0.06
31223 H 112.55696890812152 110.43022840038849 63.21934430923363 H 0.0 **** 0.06
31224 H 112.46073765212572 110.97945827590443 61.5290509644386 H 0.0 **** 0.06
31225 H 110.98429845078536 110.47305658261716 62.385674706709544 H 0.0 **** 0.06
31226 C 74.58686270597144 93.75502849222363 37.38313167111576 C 0.0 **** -0.24
31227 H 75.57844438384365 93.74752040524638 37.835433517459165 H 0.0 **** 0.06
31228 H 74.29668037168574 92.7366435261849 37.125945346961345 H 0.0 **** 0.06
31229 H 74.60425571292126 94.3673461954343 36.48084393628727 H 0.0 **** 0.06
31230 H 73.86914040900672 94.17052157663258 38.089882490666994 H 0.0 **** 0.06
31231 C 13.278717120254733 26.71273184384478 35.70673007190962 C 0.0 **** -0.24
31232 H 12.903640010615607 27.286309353014275 36.55414529098664 H 0.0 **** 0.06
31233 H 13.652648020496699 27.395174270993017 34.94362616572022 H 0.0 **** 0.06
31234 H 12.471512187968006 26.108618519260148 35.291183537186754 H 0.0 **** 0.06
31235 H 14.08663209138178 26.060029125916202 36.03944047029265 H 0.0 **** 0.06
31236 C 18.476099956646507 88.03342105525331 58.58887398106873 C 0.0 **** -0.24
31237 H 19.321785732799754 87.4975443822589 59.01998340394775 H 0.0 **** 0.06
31238 H 18.220927569853075 88.88224204920456 59.22423656442885 H 0.0 **** 0.06
31239 H 17.619929938240375 87.36219279432834 58.517395840572476 H 0.0 **** 0.06
31240 H 18.741866469997603 88.39032450118836 57.593593272545576 H 0.0 **** 0.06
31241 C 118.4824587218898 61.12133262530227 76.5063836299204 C 0.0 **** -0.24
31242 H 119.39360862286256 61.04600207992044 77.10017379217359 H 0.0 **** 0.06
31243 H 117.95576421511319 62.04009858432991 76.76584002777071 H 0.0 **** 0.06
31244 H 117.84225743840787 60.26374991759795 76.71352076248107 H 0.0 **** 0.06
31245 H 118.73939554092345 61.13704923125445 75.44705787832581 H 0.0 **** 0.06
31246 C 51.9241572047626 52.35247674878113 115.33407433537752 C 0.0 **** -0.24
31247 H 52.43510080787217 52.1054392518531 116.263964975064 H 0.0 **** 0.06
31248 H 51.046385767883685 52.96060441951144 115.5521697185429 H 0.0 **** 0.06
31249 H 51.61507168898017 51.43329104366015 114.83419486765362 H 0.0 **** 0.06
31250 H 52.60021886751865 52.90887022947152 114.68421239476433 H 0.0 **** 0.06
31251 C 54.85372974540289 27.028910667400027 69.8997779285119 C 0.0 **** -0.24
31252 H 55.841995610197216 26.643543968736083 70.14948500445408 H 0.0 **** 0.06
31253 H 54.55724997732628 27.775158910144846 70.63787816762672 H 0.0 **** 0.06
31254 H 54.13429728919985 26.210094002619414 69.90196345022173 H 0.0 **** 0.06
31255 H 54.88066747130972 27.48585326016258 68.91050122292171 H 0.0 **** 0.06
31256 C 104.56199949953267 62.46778256647237 90.50429839825651 C 0.0 **** -0.24
31257 H 105.15369123924836 63.29257421624934 90.10568297272786 H 0.0 **** 0.06
31258 H 104.62668737541458 61.61547711392857 89.82821819624183 H 0.0 **** 0.06
31259 H 103.52268577596462 62.780288443094214 90.59932238310338 H 0.0 **** 0.06
31260 H 104.94792762260101 62.185625079554605 91.4839254766168 H 0.0 **** 0.06
31261 C 44.725006226709056 90.84188022839268 21.186008738564965 C 0.0 **** -0.24
31262 H 43.879716995416004 90.23541276251117 21.51178460885052 H 0.0 **** 0.06
31263 H 45.29183244884861 90.29830495169102 20.43014001865322 H 0.0 **** 0.06
31264 H 45.36837000858941 91.05709270806719 22.039410301062446 H 0.0 **** 0.06
31265 H 44.35861587883274 91.77718838841542 20.761956415650047 H 0.0 **** 0.06
31266 C 56.01421069398765 109.11303154745175 15.017994349595597 C 0.0 **** -0.24
31267 H 55.55044658428841 108.79162449086635 15.950652878379685 H 0.0 **** 0.06
31268 H 55.55242125404027 108.58757604323168 14.182773703435487 H 0.0 **** 0.06
31269 H 57.08023052380747 108.8873027771744 15.045486425192038 H 0.0 **** 0.06
31270 H 55.873970561743135 110.18723168634227 14.89423093703924 H 0.0 **** 0.06
31271 C 41.70187381982831 19.66407986723408 91.09850423484443 C 0.0 **** -0.24
31272 H 42.08601783619517 19.343182063507726 92.06670283770507 H 0.0 **** 0.06
31273 H 41.37732482302286 20.703079240358306 91.161709172283 H 0.0 **** 0.06
31274 H 40.856326975626814 19.03598872570217 90.81678156417124 H 0.0 **** 0.06
31275 H 42.48750709973308 19.57332201499264 90.34824031752518 H 0.0 **** 0.06
31276 C 45.691363649559506 56.137148174562334 43.23815500812353 C 0.0 **** -0.24
31277 H 46.377801927979846 56.10702432172143 42.391919450203346 H 0.0 **** 0.06
31278 H 45.664070845740284 57.14801003469123 43.64599323537553 H 0.0 **** 0.06
31279 H 46.03169710465937 55.44357407861606 44.006802949597784 H 0.0 **** 0.06
31280 H 44.69227872276757 55.85206535608183 42.90667388296944 H 0.0 **** 0.06
31281 C 87.47942737499852 36.7830564262546 19.641052995822605 C 0.0 **** -0.24
31282 H 88.55096095860296 36.8985346120395 19.80636839355691 H 0.0 **** 0.06
31283 H 86.94127038204894 37.54334339628517 20.20725909905093 H 0.0 **** 0.06
31284 H 87.16578215744022 35.79232788451361 19.971855468844325 H 0.0 **** 0.06
31285 H 87.26163825326998 36.897364023478076 18.579622270735626 H 0.0 **** 0.06
31286 C 118.14682642501486 86.63321788582704 70.99006645593218 C 0.0 **** -0.24
31287 H 117.7757433070183 85.77263318317623 70.43219376261385 H 0.0 **** 0.06
31288 H 119.17433383011101 86.44718895001381 71.30416897351338 H 0.0 **** 0.06
31289 H 117.52103760079731 86.79376519418628 71.86844480679798 H 0.0 **** 0.06
31290 H 118.11579221425686 87.51779032268456 70.35467760239862 H 0.0 **** 0.06
31291 C 66.47334471756088 102.73027616228981 10.860330542801137 C 0.0 **** -0.24
31292 H 67.34000609231276 102.69894112224199 10.199211939205355 H 0.0 **** 0.06
31293 H 66.50208489107791 103.64470034582212 11.45322514453261 H 0.0 **** 0.06
31294 H 66.4913682026559 101.86550488243157 11.523184465767656 H 0.0 **** 0.06
31295 H 65.56055134972124 102.71224299470421 10.263574536182801 H 0.0 **** 0.06
31296 C 71.90556602042471 48.87892834813454 34.235797351104566 C 0.0 **** -0.24
31297 H 71.571573822598 49.915004440140194 34.28967778515562 H 0.0 **** 0.06
31298 H 72.05832562914776 48.49328322625823 35.24412267096403 H 0.0 **** 0.06
31299 H 72.84140167740242 48.82781887687614 33.680864101273016 H 0.0 **** 0.06
31300 H 71.14926836673973 48.27928585786863 33.72868459410205 H 0.0 **** 0.06
31301 C 36.48252184949118 11.90671607702879 91.4168701089882 C 0.0 **** -0.24
31302 H 36.93625955038588 11.728824027230829 90.44155317305584 H 0.0 **** 0.06
31303 H 36.97248976292337 11.28283891173497 92.16438084026657 H 0.0 **** 0.06
31304 H 35.422453523183094 11.659237587897778 91.37385806063253 H 0.0 **** 0.06
31305 H 36.599885387238004 12.956900055848593 91.68483839300706 H 0.0 **** 0.06
31306 C 39.20463040521049 23.79787241254286 61.4356801383615 C 0.0 **** -0.24
31307 H 39.07372220075258 23.705217852222916 60.35747201717849 H 0.0 **** 0.06
31308 H 40.114954171211124 23.279979206135238 61.73726896897322 H 0.0 **** 0.06
31309 H 38.348608941829326 23.356060836462404 61.9448807914443 H 0.0 **** 0.06
31310 H 39.28058605925063 24.852371159604957 61.70307828123561 H 0.0 **** 0.06
31311 C 32.72249962565982 110.05934394275668 80.27980919188872 C 0.0 **** -0.24
31312 H 33.125259911877635 109.31257490736107 79.59532489975254 H 0.0 **** 0.06
31313 H 33.508013578180595 110.39187377899003 80.95736894958219 H 0.0 **** 0.06
31314 H 31.905965259556098 109.62167748076735 80.85490685301221 H 0.0 **** 0.06
31315 H 32.349290645203524 110.90989613891358 79.70918444527342 H 0.0 **** 0.06
31316 C 11.836028800483206 30.311705221469154 117.23790280861286 C 0.0 **** -0.24
31317 H 10.959659045660288 30.404021630071014 117.8803920109653 H 0.0 **** 0.06
31318 H 11.518800344640397 30.040797415296154 116.22963013463573 H 0.0 **** 0.06
31319 H 12.494658764573273 29.5376954952021 117.63145339443153 H 0.0 **** 0.06
31320 H 12.367719249205209 31.261937182965838 117.20850958752305 H 0.0 **** 0.06
31321 C 3.6764574999041244 110.28701073695855 21.89629585276154 C 0.0 **** -0.24
31322 H 3.0218840229087043 110.4793719976082 21.04682176975227 H 0.0 **** 0.06
31323 H 4.420223725826032 111.08097684006752 21.968470898063984 H 0.0 **** 0.06
31324 H 4.178149228786859 109.32892838234454 21.759174743222815 H 0.0 **** 0.06
31325 H 3.0851360451042407 110.2594130174183 22.811895060817434 H 0.0 **** 0.06
31326 C 93.98225994323207 117.66555332891308 30.69300409096266 C 0.0 **** -0.24
31327 H 94.5138388961623 118.23735302490738 31.45288133491715 H 0.0 **** 0.06
31328 H 94.439170564106 117.84326191055186 29.71896919852452 H 0.0 **** 0.06
31329 H 92.93844129375668 117.97687762281835 30.667404801242384 H 0.0 **** 0.06
31330 H 94.03893360134546 116.6029353981855 30.932830910584414 H 0.0 **** 0.06
31331 C 79.8025766339502 73.65389299136777 74.97652724095843 C 0.0 **** -0.24
31332 H 80.57636217588987 72.88573009369048 74.96686730726233 H 0.0 **** 0.06
31333 H 80.06552507257663 74.44228563086716 74.27071226567435 H 0.0 **** 0.06
31334 H 79.72050260658489 74.07479668470185 75.97859635057637 H 0.0 **** 0.06
31335 H 78.84880385864633 73.21145315949161 74.6880604500455 H 0.0 **** 0.06
31336 C 80.09509437667649 99.47524261634052 101.18585096330128 C 0.0 **** -0.24
31337 H 79.92020792966551 100.52857816990374 100.96559306568736 H 0.0 **** 0.06
31338 H 79.5809128882388 99.20735967282363 102.10880041345871 H 0.0 **** 0.06
31339 H 81.16562980209349 99.30201055291167 101.3024666365094 H 0.0 **** 0.06
31340 H 79.71542782070725 98.86542126413079 100.36657583038314 H 0.0 **** 0.06
31341 C 97.25230292541997 58.624933746208804 96.74050401328714 C 0.0 **** -0.24
31342 H 97.33777545751514 58.021083455641 95.8373524124928 H 0.0 **** 0.06
31343 H 96.50293989937893 58.1872175357316 97.40056627222813 H 0.0 **** 0.06
31344 H 96.95410753940939 59.63901865443906 96.47264223045786 H 0.0 **** 0.06
31345 H 98.21570035647929 58.65278213197751 97.2510738064203 H 0.0 **** 0.06
31346 C 101.24451422068475 114.77957321544896 21.897194304626908 C 0.0 **** -0.24
31347 H 100.52708206144729 113.97969537367118 21.710391786361328 H 0.0 **** 0.06
31348 H 100.7950053042124 115.52464240390256 22.553025960429068 H 0.0 **** 0.06
31349 H 101.52113806929407 115.24610126236398 20.952259737252888 H 0.0 **** 0.06
31350 H 102.13382817726625 114.36541899929503 22.372067476832925 H 0.0 **** 0.06
31351 C 80.09722743697671 113.6703383506435 8.112303459917825 C 0.0 **** -0.24
31352 H 80.74855400610085 114.48080152899466 8.439579659841854 H 0.0 **** 0.06
31353 H 79.95220721287086 113.7351788459016 7.032877432680621 H 0.0 **** 0.06
31354 H 79.13332762038618 113.75343602175933 8.614355735716373 H 0.0 **** 0.06
31355 H 80.55549904026373 112.71389352990782 8.361092385203563 H 0.0 **** 0.06
31356 C 70.78577903326018 45.77960865124405 69.1422691482689 C 0.0 **** -0.24
31357 H 70.10902883411478 45.25753870344607 69.81831328617665 H 0.0 **** 0.06
31358 H 71.77303350882613 45.849885946210634 69.59972768951235 H 0.0 **** 0.06
31359 H 70.40278775203839 46.78149698627723 68.94891973174634 H 0.0 **** 0.06
31360 H 70.85750200886528 45.2294090788173 68.2044409270506 H 0.0 **** 0.06
31361 C 52.61965740364502 14.273912028269251 62.11988723708034 C 0.0 **** -0.24
31362 H 52.62414529578774 15.234173706607635 62.636062559939525 H 0.0 **** 0.06
31363 H 53.09834797930807 13.522098516993594 62.748840696789095 H 0.0 **** 0.06
31364 H 53.165260577274694 14.363363091556238 61.180240876098885 H 0.0 **** 0.06
31365 H 51.59159720666844 13.975792280185047 61.91650985293153 H 0.0 **** 0.06
31366 C 105.67713357598666 73.99727444415683 18.669530370171785 C 0.0 **** -0.24
31367 H 105.28666585940715 73.01042257997773 18.419394453199843 H 0.0 **** 0.06
31368 H 106.23823033314969 74.39054537335036 17.821338751207847 H 0.0 **** 0.06
31369 H 106.33457453714041 73.91875983509001 19.535723444497606 H 0.0 **** 0.06
31370 H 104.84956127301822 74.6674587030603 18.900616224226326 H 0.0 **** 0.06
31371 C 27.59565850214068 33.023660933437554 93.20889593639791 C 0.0 **** -0.24
31372 H 28.523859759923084 32.50939838363365 92.9562180235906 H 0.0 **** 0.06
31373 H 27.608886117750075 33.29912907118302 94.26386795424116 H 0.0 **** 0.06
31374 H 26.75024412170808 32.36213498071817 93.01677988894409 H 0.0 **** 0.06
31375 H 27.501375569647223 33.92115342248917 92.59864397771452 H 0.0 **** 0.06
31376 C 96.51380286146446 48.802164888569244 95.70357331087985 C 0.0 **** -0.24
31377 H 97.40942470231255 48.63563752354886 96.30234600686538 H 0.0 **** 0.06
31378 H 96.03219893723417 47.84617065735859 95.4960731726552 H 0.0 **** 0.06
31379 H 96.78929853264208 49.28206355666402 94.76484175572682 H 0.0 **** 0.06
31380 H 95.8249524151347 49.44463669169593 96.2517654270801 H 0.0 **** 0.06
31381 C 66.67841725821964 72.20939295029402 58.03949036076141 C 0.0 **** -0.24
31382 H 67.0124753338367 73.24391338835625 57.964529063014744 H 0.0 **** 0.06
31383 H 65.62305188329512 72.14776709161285 57.77418913400502 H 0.0 **** 0.06
31384 H 66.81763274103471 71.85567345691237 59.0610735146033 H 0.0 **** 0.06
31385 H 67.26132115427288 71.58907819640089 57.358374184340526 H 0.0 **** 0.06
31386 C 54.35539124989816 114.527425010956 71.80416568813013 C 0.0 **** -0.24
31387 H 54.46183217583763 113.4454966223708 71.72317259377786 H 0.0 **** 0.06
31388 H 54.6491483129067 114.84696574336704 72.8042477370069 H 0.0 **** 0.06
31389 H 53.31609410274308 114.80326521572499 71.62548386599354 H 0.0 **** 0.06
31390 H 54.99271975209791 115.01125665273753 71.064458412536 H 0.0 **** 0.06
31391 C 105.31912669877687 99.02515557682744 114.02202778580164 C 0.0 **** -0.24
31392 H 105.45698535302594 99.83414225054571 114.73955697316671 H 0.0 **** 0.06
31393 H 106.15992862328781 99.00791531573134 113.32803390149547 H 0.0 **** 0.06
31394 H 104.3939039610851 99.18512350049559 113.46790798662653 H 0.0 **** 0.06
31395 H 105.26586652950448 98.07433290448239 114.55219583660335 H 0.0 **** 0.06
31396 C 56.74439261710796 80.0845927583699 101.37412845837204 C 0.0 **** -0.24
31397 H 57.69411623690107 80.22159556275238 100.85570591927666 H 0.0 **** 0.06
31398 H 56.448748153706106 79.03699843990103 101.31795854430553 H 0.0 **** 0.06
31399 H 55.981001456038996 80.70362433905356 100.90249891731645 H 0.0 **** 0.06
31400 H 56.8546398068616 80.3767550852562 102.41756422252206 H 0.0 **** 0.06
31401 C 3.6382713415358268 59.94633453421622 82.908726949894 C 0.0 **** -0.24
31402 H 4.705872649301227 60.15206691633256 82.83404643818028 H 0.0 **** 0.06
31403 H 3.12296002009829 60.38588617516166 82.05485157746182 H 0.0 **** 0.06
31404 H 3.2489250789075044 60.37855507577487 83.83155606335859 H 0.0 **** 0.06
31405 H 3.4759981300660314 58.86864824460753 82.91680270774597 H 0.0 **** 0.06
31406 C 103.00138392560868 23.98007836763395 111.52398219182346 C 0.0 **** -0.24
31407 H 102.8549380377845 22.90712147548487 111.64996911687558 H 0.0 **** 0.06
31408 H 102.03714688659045 24.48652063789791 111.57527325830048 H 0.0 **** 0.06
31409 H 103.46212098654735 24.172070155527138 110.55491971176582 H 0.0 **** 0.06
31410 H 103.65063370289496 24.353729216943236 112.31489764613706 H 0.0 **** 0.06
31411 C 44.82817143625483 82.37379804843036 17.72965455546759 C 0.0 **** -0.24
31412 H 44.585421106904455 82.08831900041437 18.753961955377036 H 0.0 **** 0.06
31413 H 45.09841092975629 83.42985224334097 17.702090490780108 H 0.0 **** 0.06
31414 H 43.962850534164076 82.20239066417537 17.090194819623065 H 0.0 **** 0.06
31415 H 45.6671638792436 81.77482140857455 17.375472065570932 H 0.0 **** 0.06
31416 C 100.28236243724692 3.4699662249243204 85.31640599588303 C 0.0 **** -0.24
31417 H 101.31751032394266 3.172833064616796 85.48439499330229 H 0.0 **** 0.06
31418 H 99.93462136046037 3.05369880322894 84.37096581064611 H 0.0 **** 0.06
31419 H 100.21829224563513 4.557658499227671 85.27989407721614 H 0.0 **** 0.06
31420 H 99.6604698414238 3.0956346482095256 86.12941339111305 H 0.0 **** 0.06
31421 C 47.15737052375346 85.22262915348168 87.44120847429406 C 0.0 **** -0.24
31422 H 47.10919630690995 84.51286841666013 86.61472884850951 H 0.0 **** 0.06
31423 H 47.53445356533928 84.71951121637923 88.33157878429836 H 0.0 **** 0.06
31424 H 46.15984008235648 85.61577441826208 87.63991793007017 H 0.0 **** 0.06
31425 H 47.825036150484664 86.04252239267021 87.17659318407678 H 0.0 **** 0.06
31426 C 34.185658824858365 93.8568515578553 7.434493050771948 C 0.0 **** -0.24
31427 H 33.518158047667384 93.07190111694388 7.077420016813647 H 0.0 **** 0.06
31428 H 34.26023169655505 94.64037328125846 6.679521366621913 H 0.0 **** 0.06
31429 H 35.17340016284781 93.43610177053824 7.6211349527071235 H 0.0 **** 0.06
31430 H 33.7889680883073 94.2782861826438 8.35850924395261 H 0.0 **** 0.06
31431 C 78.50142576009975 92.01280639581557 100.85554558591232 C 0.0 **** -0.24
31432 H 78.30259990422164 92.54015391463929 99.92253784516598 H 0.0 **** 0.06
31433 H 77.58002658857899 91.5577830224126 101.21866657476784 H 0.0 **** 0.06
31434 H 78.87600681510116 92.71875863707402 101.59830137891686 H 0.0 **** 0.06
31435 H 79.24782122376894 91.23768508391578 100.68337038061875 H 0.0 **** 0.06
31436 C 13.443305565519665 9.7927066306097 70.8991947380853 C 0.0 **** -0.24
31437 H 14.07189818201303 8.953072011759758 70.59864900849752 H 0.0 **** 0.06
31438 H 14.048323053577718 10.697747640335052 70.95264727059597 H 0.0 **** 0.06
31439 H 13.007008809747987 9.587053616044614 71.87681509616812 H 0.0 **** 0.06
31440 H 12.64679683687919 9.928821405486843 70.16753553272102 H 0.0 **** 0.06
31441 C 71.02607635453839 57.676230540664456 57.417789082618164 C 0.0 **** -0.24
31442 H 70.30031965368246 58.412490862336604 57.76428087673883 H 0.0 **** 0.06
31443 H 71.31984287549534 57.03673518915826 58.25159219789621 H 0.0 **** 0.06
31444 H 71.90400724485977 58.188382953845824 57.0244421516532 H 0.0 **** 0.06
31445 H 70.57763682862668 57.066664124300026 56.63292324765536 H 0.0 **** 0.06
31446 C 30.898446507907636 105.33120085746219 8.532901145607383 C 0.0 **** -0.24
31447 H 30.77429366277181 105.4757771525941 9.60578478037749 H 0.0 **** 0.06
31448 H 30.05235899146902 104.76522411675603 8.141948632524361 H 0.0 **** 0.06
31449 H 31.8209635556085 104.78308846024811 8.34362986336231 H 0.0 **** 0.06
31450 H 30.945580079762436 106.30239656275418 8.03889205787965 H 0.0 **** 0.06
31451 C 15.995082382857078 44.092783164311406 116.95745610564651 C 0.0 **** -0.24
31452 H 16.417917799272388 43.274207125800565 117.54063969527584 H 0.0 **** 0.06
31453 H 16.634593228474415 44.97112569721755 117.04864207937406 H 0.0 **** 0.06
31454 H 14.997936051423352 44.326602041107726 117.3304795589664 H 0.0 **** 0.06
31455 H 15.931569243196208 43.79659348711712 115.91067375431066 H 0.0 **** 0.06
31456 C 111.51681449023353 24.427054365686615 16.845296351720975 C 0.0 **** -0.24
31457 H 112.58353278519847 24.454549862286683 17.07093928058069 H 0.0 **** 0.06
31458 H 111.04798472107709 25.34659984786029 17.194258049625773 H 0.0 **** 0.06
31459 H 111.06179529767995 23.57333592046939 17.346887702307157 H 0.0 **** 0.06
31460 H 111.37629467417212 24.332333727452266 15.767865222844364 H 0.0 **** 0.06
31461 C 57.33725710682017 106.29049826151731 12.9291272998625 C 0.0 **** -0.24
31462 H 57.943590755111494 106.40906771262001 13.827900042429206 H 0.0 **** 0.06
31463 H 57.833180880822205 105.60160064606214 12.245343522824783 H 0.0 **** 0.06
31464 H 57.213674884060104 107.25855679483124 12.444195708548904 H 0.0 **** 0.06
31465 H 56.35999970702239 105.8923878632221 13.20103098989037 H 0.0 **** 0.06
31466 C 15.25488315803696 33.843213980022 88.70410602388125 C 0.0 **** -0.24
31467 H 15.2395507874688 32.86679759887278 89.1891664174452 H 0.0 **** 0.06
31468 H 15.528868580765334 33.72352813483897 87.65582511375271 H 0.0 **** 0.06
31469 H 15.98378138792043 34.48365635777961 89.20012463725334 H 0.0 **** 0.06
31470 H 14.26585911717396 34.2972400690505 88.77171054848205 H 0.0 **** 0.06
31471 C 46.70210304440789 113.65804475746754 101.30791031703461 C 0.0 **** -0.24
31472 H 47.13073562115676 113.78484511639165 102.30227261477864 H 0.0 **** 0.06
31473 H 45.61415237904535 113.64495256725648 101.38085257914778 H 0.0 **** 0.06
31474 H 47.04988158178995 112.71816938509397 100.87842809192205 H 0.0 **** 0.06
31475 H 47.01436905499803 114.4862058921412 100.67079281468673 H 0.0 **** 0.06
31476 C 76.7140610739225 27.509215513219402 50.914791716205514 C 0.0 **** -0.24
31477 H 77.68391007423787 27.822344911085054 51.30162433810841 H 0.0 **** 0.06
31478 H 75.9345701803083 28.148566877939857 51.32854323226786 H 0.0 **** 0.06
31479 H 76.52658094359214 26.47415418260391 51.20002459919061 H 0.0 **** 0.06
31480 H 76.7146242096446 27.592629611231246 49.82776440803809 H 0.0 **** 0.06
31481 C 92.85465138438673 10.800829444252287 82.34290850629318 C 0.0 **** -0.24
31482 H 92.10480391486982 10.176176763593475 82.82933674062139 H 0.0 **** 0.06
31483 H 93.07141940933036 10.401260992946987 81.35136307362936 H 0.0 **** 0.06
31484 H 93.76584821019836 10.805947128297163 82.94017281997216 H 0.0 **** 0.06
31485 H 92.47543007077337 11.818594044398253 82.24935103186704 H 0.0 **** 0.06
31486 C 102.8507677578202 108.4969169990178 2.9648201515215646 C 0.0 **** -0.24
31487 H 103.01909124107519 107.44473982183047 2.73337250461708 H 0.0 **** 0.06
31488 H 102.28031860495437 108.95903671828583 2.158276427399244 H 0.0 **** 0.06
31489 H 103.81006831070806 109.00323987417809 3.067912898782481 H 0.0 **** 0.06
31490 H 102.29406655883596 108.57883901034313 3.8981406246804227 H 0.0 **** 0.06
31491 C 39.98236903170421 11.580153083443552 44.653973372745895 C 0.0 **** -0.24
31492 H 40.21528635709821 11.653927184040931 43.59215539630509 H 0.0 **** 0.06
31493 H 40.86568532243383 11.83875193833364 45.23854037075944 H 0.0 **** 0.06
31494 H 39.67677239870671 10.560151807455917 44.8885340377592 H 0.0 **** 0.06
31495 H 39.17173204857792 12.267781403943715 44.896663686159854 H 0.0 **** 0.06
31496 C 36.12705370747245 69.1668402447294 3.01166855847012 C 0.0 **** -0.24
31497 H 35.41708183583541 68.40198914698908 2.6966426540204793 H 0.0 **** 0.06
31498 H 35.58291293498373 70.03164121723546 3.3920429782456267 H 0.0 **** 0.06
31499 H 36.73788190096335 69.46680791197304 2.1609724857358117 H 0.0 **** 0.06
31500 H 36.768357589115645 68.76601968546797 3.796504062069488 H 0.0 **** 0.06
31501 C 90.41439267298944 47.110693680566186 6.01146936983227 C 0.0 **** -0.24
31502 H 90.52982987935388 48.114154073296845 5.60108406998458 H 0.0 **** 0.06
31503 H 91.38170970614703 46.747435521666034 6.359474937986647 H 0.0 **** 0.06
31504 H 90.03244327559071 46.444582406227966 5.238239158006678 H 0.0 **** 0.06
31505 H 89.71459163996809 47.1387524300427 6.846469829975078 H 0.0 **** 0.06
31506 C 58.23958974093841 31.733889396372632 104.44991204375663 C 0.0 **** -0.24
31507 H 58.92340973432414 32.53408832540205 104.73152242870088 H 0.0 **** 0.06
31508 H 58.78334752436979 30.971832471757267 103.8908294586123 H 0.0 **** 0.06
31509 H 57.441302707216266 32.14024711973869 103.82891383338199 H 0.0 **** 0.06
31510 H 57.8115361833714 31.28985885904575 105.34888180331126 H 0.0 **** 0.06
31511 C 110.89228710687576 44.71548606539655 1.0199467817748769 C 0.0 **** -0.24
31512 H 110.86839356790222 44.59063090878075 -0.06255950027988888 H 0.0 **** 0.06
31513 H 111.80165109222204 44.26356475569827 1.417453894617779 H 0.0 **** 0.06
31514 H 110.02219605207301 44.22803081260642 1.4607285330907729 H 0.0 **** 0.06
31515 H 110.87671295480925 45.7777699845108 1.2637538610526633 H 0.0 **** 0.06
31516 C 50.47513816465562 105.58898597484693 86.18761355697515 C 0.0 **** -0.24
31517 H 50.51644246980726 106.39518884119931 86.92000993885549 H 0.0 **** 0.06
31518 H 50.265938258544395 104.64752611210909 86.69570636852052 H 0.0 **** 0.06
31519 H 51.43108176814485 105.5183175935181 85.66993382911869 H 0.0 **** 0.06
31520 H 49.684987800960926 105.79568269382293 85.46579679556146 H 0.0 **** 0.06
31521 C 1.5430484995559652 58.39631259142137 2.3740688511245764 C 0.0 **** -0.24
31522 H 2.0211938817035957 58.30908284646417 1.398331926744806 H 0.0 **** 0.06
31523 H 2.3036258106349123 58.56357673522128 3.137204141836998 H 0.0 **** 0.06
31524 H 1.0001523226590905 57.47801886446643 2.596379223120545 H 0.0 **** 0.06
31525 H 0.8485060540315885 59.23687509849368 2.362929359193865 H 0.0 **** 0.06
31526 C 30.9396880733185 89.52564341595141 88.37995249389286 C 0.0 **** -0.24
31527 H 31.067157140076155 89.49418225841521 87.29795416053832 H 0.0 **** 0.06
31528 H 30.10370260003711 88.8868590704543 88.66538801113435 H 0.0 **** 0.06
31529 H 30.736110467767936 90.55030099217976 88.69153651091082 H 0.0 **** 0.06
31530 H 31.850407122851053 89.17230096183206 88.86352926380391 H 0.0 **** 0.06
31531 C 108.26486652576057 75.80831038073936 6.109054954008968 C 0.0 **** -0.24
31532 H 108.27267189578436 74.79245052557928 5.71293698012704 H 0.0 **** 0.06
31533 H 108.2046280997796 75.77264418305231 7.196939985023732 H 0.0 **** 0.06
31534 H 107.40300432606011 76.34504479681166 5.713821825556977 H 0.0 **** 0.06
31535 H 109.18052466486165 76.32011303253734 5.812063683366944 H 0.0 **** 0.06
31536 C 111.61224853591148 117.63737224898921 97.4532341837492 C 0.0 **** -0.24
31537 H 111.5250545989959 118.5528690401392 96.8690233059493 H 0.0 **** 0.06
31538 H 111.92264509922495 116.81944767396348 96.80170595430556 H 0.0 **** 0.06
31539 H 110.64745054333821 117.39911453580619 97.90068993377659 H 0.0 **** 0.06
31540 H 112.35334235608269 117.77712142922537 98.23889604694841 H 0.0 **** 0.06
31541 C 46.96492873950331 69.05553905673236 103.6241502358904 C 0.0 **** -0.24
31542 H 46.86877663733334 70.00699826058906 103.10147279905487 H 0.0 **** 0.06
31543 H 46.768199404361525 68.23830546140272 102.92889668731732 H 0.0 **** 0.06
31544 H 46.24694623756599 69.01636286956892 104.44333270760995 H 0.0 **** 0.06
31545 H 47.97593649369941 68.96018430520303 104.02068823300124 H 0.0 **** 0.06
31546 C 78.44960087348977 17.958272414774072 88.91277773746287 C 0.0 **** -0.24
31547 H 77.56213182670979 18.532858320788222 88.64870149700556 H 0.0 **** 0.06
31548 H 79.28795871587144 18.280110836680308 88.29360181167141 H 0.0 **** 0.06
31549 H 78.25939398929006 16.898177290640717 88.74544802994598 H 0.0 **** 0.06
31550 H 78.68930196182299 18.123197500414165 89.96388893754806 H 0.0 **** 0.06
31551 C 103.79429996857994 58.98074235769983 64.38096636932289 C 0.0 **** -0.24
31552 H 103.57880527295299 58.227352954584084 65.13963434740285 H 0.0 **** 0.06
31553 H 103.11225616169583 58.85462367498335 63.54027387024339 H 0.0 **** 0.06
31554 H 104.8217176232514 58.864258831634196 64.03635773766936 H 0.0 **** 0.06
31555 H 103.66507601001118 59.97483203342775 64.80899727428323 H 0.0 **** 0.06
31556 C 94.31233783589084 37.23389435522637 57.61989298863244 C 0.0 **** -0.24
31557 H 93.72507789326474 38.150065051442425 57.55210193089925 H 0.0 **** 0.06
31558 H 95.30083943872145 37.463694890237605 58.01673530619828 H 0.0 **** 0.06
31559 H 94.41147975620586 36.792872814525026 56.627210992335684 H 0.0 **** 0.06
31560 H 93.80861709254478 36.52917731513077 58.28217837038347 H 0.0 **** 0.06
31561 C 98.9920481587692 102.12639482553035 55.115189405386786 C 0.0 **** -0.24
31562 H 99.40808705099712 102.67195589748792 54.26779907813065 H 0.0 **** 0.06
31563 H 98.10203608400619 101.58310807868543 54.7958719244381 H 0.0 **** 0.06
31564 H 98.72575556914376 102.83035145450191 55.90389842360034 H 0.0 **** 0.06
31565 H 99.73301452229646 101.42129349709714 55.491693755061846 H 0.0 **** 0.06
31566 C 19.93485371793375 74.1093277811764 53.08764264701091 C 0.0 **** -0.24
31567 H 20.979104687881943 74.16073617409725 52.77981860012761 H 0.0 **** 0.06
31568 H 19.456169995420453 75.07293245813617 52.90915294649102 H 0.0 **** 0.06
31569 H 19.880555800207162 73.8679718910241 54.14954738990485 H 0.0 **** 0.06
31570 H 19.423306800803743 73.33742008425784 52.51341640348048 H 0.0 **** 0.06
31571 C 71.77307197287925 115.98626947776526 38.224298662625245 C 0.0 **** -0.24
31572 H 71.95897299638287 116.91145693698522 37.67864716799361 H 0.0 **** 0.06
31573 H 72.31904246943026 116.00481238227165 39.16776777907477 H 0.0 **** 0.06
31574 H 72.10657380933762 115.13885514677605 37.62637561373716 H 0.0 **** 0.06
31575 H 70.70518577307917 115.89211267048155 38.424249143909535 H 0.0 **** 0.06
31576 C 102.4841228467458 102.75419533553202 106.73887255240655 C 0.0 **** -0.24
31577 H 101.4223144158581 103.00212612796727 106.73976397058843 H 0.0 **** 0.06
31578 H 102.6042469854809 101.67125700076971 106.71014419991354 H 0.0 **** 0.06
31579 H 102.94938821116199 103.1474244048384 107.6429602864226 H 0.0 **** 0.06
31580 H 102.95965619623578 103.1961180757365 105.8637149385348 H 0.0 **** 0.06
31581 C 18.880373488622325 62.94018544904534 75.83164506911103 C 0.0 **** -0.24
31582 H 19.2777941791268 63.94283196404512 75.99303713680189 H 0.0 **** 0.06
31583 H 18.29263914232743 62.63953063661753 76.69986720709713 H 0.0 **** 0.06
31584 H 19.704679987241946 62.241178503369845 75.69168925219344 H 0.0 **** 0.06
31585 H 18.247692332762966 62.93812659523801 74.94536647333035 H 0.0 **** 0.06
31586 C 52.120711044616314 88.37467110034916 94.76551416289061 C 0.0 **** -0.24
31587 H 52.75141300507369 87.83137023439639 94.06139143690712 H 0.0 **** 0.06
31588 H 51.24352885621903 87.77404566644117 95.00616965614353 H 0.0 **** 0.06
31589 H 51.80470526435454 89.31695773924883 94.31677496645301 H 0.0 **** 0.06
31590 H 52.68464196344644 88.57733495293883 95.67635547024116 H 0.0 **** 0.06
31591 C 103.72736826511078 30.514751978970537 13.799093583832331 C 0.0 **** -0.24
31592 H 102.95338840221817 31.27924007834389 13.740224070161645 H 0.0 **** 0.06
31593 H 104.69129111474334 30.952733320983384 13.541249414764877 H 0.0 **** 0.06
31594 H 103.49601576442814 29.70926975722398 13.101920724282365 H 0.0 **** 0.06
31595 H 103.7685677223113 30.116578299672994 14.813720603507946 H 0.0 **** 0.06
31596 C 96.13107367537518 12.541065107334845 19.94758501525715 C 0.0 **** -0.24
31597 H 96.3652500488281 11.830758861153672 19.155023977701703 H 0.0 **** 0.06
31598 H 96.02944399716324 13.539341711406287 19.521207443776255 H 0.0 **** 0.06
31599 H 96.9328164161312 12.540003193383377 20.685762497678837 H 0.0 **** 0.06
31600 H 95.19467185046446 12.254369009308693 20.42764399154499 H 0.0 **** 0.06
31601 C 69.84106793174044 47.43937089876995 113.460725033484 C 0.0 **** -0.24
31602 H 69.0612667254461 48.17877047936055 113.63863740407102 H 0.0 **** 0.06
31603 H 69.79266848552572 46.666885098629585 114.22868453405307 H 0.0 **** 0.06
31604 H 70.81674146790567 47.92550014328381 113.49480075683057 H 0.0 **** 0.06
31605 H 69.69495439805945 46.98637109708704 112.48038960330696 H 0.0 **** 0.06
31606 C 66.18478723049614 42.861974485454084 85.93777222093581 C 0.0 **** -0.24
31607 H 66.17265503372528 42.02625575874126 86.63794836365906 H 0.0 **** 0.06
31608 H 66.12066535329777 43.79962361774824 86.49096850644534 H 0.0 **** 0.06
31609 H 65.33402192894388 42.77987090224775 85.2607493118879 H 0.0 **** 0.06
31610 H 67.11089435548035 42.84014354369515 85.36369247928124 H 0.0 **** 0.06
31611 C 101.21035804939828 65.96704336690865 56.26948736946878 C 0.0 **** -0.24
31612 H 101.51480622202874 64.92360495540001 56.18263569653706 H 0.0 **** 0.06
31613 H 100.9084903972292 66.34018662192418 55.290613206204284 H 0.0 **** 0.06
31614 H 102.04543325101733 66.55886908879606 56.643234937387234 H 0.0 **** 0.06
31615 H 100.37163575169174 66.04300808423244 56.96223328104779 H 0.0 **** 0.06
31616 C 71.91663899302284 18.673506876664742 54.65276312036218 C 0.0 **** -0.24
31617 H 71.4330321158902 19.340684287596687 53.93968021914645 H 0.0 **** 0.06
31618 H 71.58103358811198 18.916058811014626 55.661664608762294 H 0.0 **** 0.06
31619 H 72.9983107921442 18.797745792235844 54.58939546434715 H 0.0 **** 0.06
31620 H 71.65417483107422 17.641988089801124 54.42033236219669 H 0.0 **** 0.06
31621 C 66.09046256750804 7.714943809021193 25.012709849443326 C 0.0 **** -0.24
31622 H 65.69956860059307 6.721350203237421 24.794024670273046 H 0.0 **** 0.06
31623 H 65.42355590674083 8.468200472719545 24.591958690897684 H 0.0 **** 0.06
31624 H 67.0819575735938 7.819150865903367 24.57148299088749 H 0.0 **** 0.06
31625 H 66.1575569660236 7.849325228162243 26.0918495468635 H 0.0 **** 0.06
31626 C 99.92560239025914 70.41029894147152 73.27331754802745 C 0.0 **** -0.24
31627 H 99.97061241906331 69.95719649256475 74.26368760044551 H 0.0 **** 0.06
31628 H 99.3784483321748 71.35152202365961 73.32962150675124 H 0.0 **** 0.06
31629 H 99.41617426903701 69.73425079663286 72.58662077006417 H 0.0 **** 0.06
31630 H 100.93809117632873 70.59858812907237 72.91435475400095 H 0.0 **** 0.06
31631 C 118.78461534589073 59.99997645393972 41.8852762992388 C 0.0 **** -0.24
31632 H 117.93080751685059 59.32341117133325 41.93099522963652 H 0.0 **** 0.06
31633 H 119.7078723051836 59.4232261075677 41.93900882468941 H 0.0 **** 0.06
31634 H 118.7406210362019 60.69562581704491 42.72253131461095 H 0.0 **** 0.06
31635 H 118.75732096591582 60.55637219273956 40.9485242767301 H 0.0 **** 0.06
31636 C 57.673960188781685 96.88657132952437 3.4814693326544273 C 0.0 **** -0.24
31637 H 56.85680137355465 97.2170348884523 4.123353221622111 H 0.0 **** 0.06
31638 H 58.613603851737786 97.2986714381166 3.849216324578819 H 0.0 **** 0.06
31639 H 57.49716280702841 97.23282038853361 2.462426187572575 H 0.0 **** 0.06
31640 H 57.72499158678048 95.79800999456072 3.4912958344619938 H 0.0 **** 0.06
31641 C 17.16527643108728 51.46967229986842 95.03991949075328 C 0.0 **** -0.24
31642 H 17.973422683968835 51.40611039021084 94.31225267059986 H 0.0 **** 0.06
31643 H 16.47813340611546 52.26622633401084 94.75137346369823 H 0.0 **** 0.06
31644 H 17.57947862504929 51.68691448311921 96.0243106360214 H 0.0 **** 0.06
31645 H 16.630170664529317 50.52143252038141 95.07163091977105 H 0.0 **** 0.06
31646 C 26.932493742234158 17.84634288206047 19.412747702143122 C 0.0 **** -0.24
31647 H 27.67993218238177 17.939711799800904 18.624660388606515 H 0.0 **** 0.06
31648 H 27.279764826405817 18.36645284944808 20.306118314339358 H 0.0 **** 0.06
31649 H 26.776632781421746 16.79205131002189 19.64249591393883 H 0.0 **** 0.06
31650 H 25.99361362531461 18.287392409682695 19.076322266304032 H 0.0 **** 0.06
31651 C 86.55892016887134 58.90083822287218 24.250341909744094 C 0.0 **** -0.24
31652 H 87.05179412147237 58.19760562729289 23.57899419324025 H 0.0 **** 0.06
31653 H 86.68438922718786 59.91517031903575 23.868399998949627 H 0.0 **** 0.06
31654 H 87.00319677525869 58.82794422411487 25.242538601627217 H 0.0 **** 0.06
31655 H 85.49672282526234 58.663482661354664 24.308588828043753 H 0.0 **** 0.06
31656 C 4.662201925471084 79.61534660786901 77.37697623273633 C 0.0 **** -0.24
31657 H 3.6253167661553043 79.67182602948526 77.04743451880651 H 0.0 **** 0.06
31658 H 5.320861674599644 79.88974768029243 76.55201438601273 H 0.0 **** 0.06
31659 H 4.885800353824585 78.59725106933854 77.69797291723407 H 0.0 **** 0.06
31660 H 4.817165931653491 80.30094274444912 78.20996762131779 H 0.0 **** 0.06
31661 C 39.48171387238739 28.711721801304463 31.518641124123718 C 0.0 **** -0.24
31662 H 40.409436723311046 28.15714911351472 31.667147495197213 H 0.0 **** 0.06
31663 H 38.92453900448652 28.270994306875195 30.691136386806562 H 0.0 **** 0.06
31664 H 39.713273662253926 29.751215254193085 31.288786975243312 H 0.0 **** 0.06
31665 H 38.8819372084489 28.66460237877169 32.427559867273175 H 0.0 **** 0.06
31666 C 85.82782458730861 32.84374753344102 55.661653208555585 C 0.0 **** -0.24
31667 H 86.06206995956492 31.890858636063115 56.13761381660931 H 0.0 **** 0.06
31668 H 85.14114735485802 32.674866154936495 54.83145979983857 H 0.0 **** 0.06
31669 H 86.74500383696832 33.2985648748047 55.288307602182506 H 0.0 **** 0.06
31670 H 85.36262001096225 33.50737172237761 56.39007490421721 H 0.0 **** 0.06
31671 C 110.95421742869284 44.49832356979661 29.084650148758612 C 0.0 **** -0.24
31672 H 111.37883933782697 45.36843995334459 28.58232816227772 H 0.0 **** 0.06
31673 H 111.5937389532078 43.632458391408576 28.913991817370203 H 0.0 **** 0.06
31674 H 109.9580257783437 44.300044840348505 28.687153727508587 H 0.0 **** 0.06
31675 H 110.8861838578409 44.6953378021081 30.154855939534798 H 0.0 **** 0.06
31676 C 72.60949146804356 28.376711238190893 115.62547122030799 C 0.0 **** -0.24
31677 H 72.54351935142 27.55513802547341 114.91268467158848 H 0.0 **** 0.06
31678 H 73.24265277216551 29.163493534716167 115.21425959173861 H 0.0 **** 0.06
31679 H 73.0393452822471 28.014453823663473 116.55884294672904 H 0.0 **** 0.06
31680 H 71.61205799325461 28.7744059595243 115.81490191741376 H 0.0 **** 0.06
31681 C 64.27814131030337 101.95841511494922 71.54894935618563 C 0.0 **** -0.24
31682 H 64.60731999927268 100.92634750510354 71.67429078921879 H 0.0 **** 0.06
31683 H 63.638669143819975 102.23894577926467 72.3864704127414 H 0.0 **** 0.06
31684 H 63.71824967262244 102.04906288565797 70.61742910282513 H 0.0 **** 0.06
31685 H 65.14673687338365 102.61529949341588 71.51694678455826 H 0.0 **** 0.06
31686 C 38.57100383865526 47.77485220525604 118.72337771702013 C 0.0 **** -0.24
31687 H 38.41350391259624 46.84491846404589 118.17803698525941 H 0.0 **** 0.06
31688 H 38.573248370431884 47.57204971085994 119.79517657130205 H 0.0 **** 0.06
31689 H 37.76907371200048 48.47444402044161 118.48762799150052 H 0.0 **** 0.06
31690 H 39.52801391791127 48.2085627318084 118.43395339991525 H 0.0 **** 0.06
31691 C 114.39597267834182 97.37085248969402 43.72068839327636 C 0.0 **** -0.24
31692 H 113.54310506584288 96.6995819601741 43.820027542215 H 0.0 **** 0.06
31693 H 115.20854345793022 97.02275812732245 44.35955668923583 H 0.0 **** 0.06
31694 H 114.10300887036071 98.37623580808213 44.022057139389204 H 0.0 **** 0.06
31695 H 114.72979998900388 97.38459160118856 42.68326171158992 H 0.0 **** 0.06
31696 C 103.33679261084154 3.715479980467933 76.36367021899014 C 0.0 **** -0.24
31697 H 103.87292478569896 4.5375412791148335 76.83788860934774 H 0.0 **** 0.06
31698 H 102.31547117890875 3.6797426633760324 76.74281260293006 H 0.0 **** 0.06
31699 H 103.84098843380022 2.7750879754935056 76.58895690014597 H 0.0 **** 0.06
31700 H 103.31903188617414 3.8679888789263543 75.28401414972973 H 0.0 **** 0.06
31701 C 56.44994211026261 2.986209983639853 41.80324416299352 C 0.0 **** -0.24
31702 H 55.390971281048195 3.0615802019931095 41.55832045476938 H 0.0 **** 0.06
31703 H 57.002408428479896 3.760976025616614 41.26886855670963 H 0.0 **** 0.06
31704 H 56.821417436684186 2.0053218334020357 41.50732683604493 H 0.0 **** 0.06
31705 H 56.586072994415815 3.1182156671763153 42.87666787084072 H 0.0 **** 0.06
31706 C 104.04970088022421 71.89113626410389 101.38977564111877 C 0.0 **** -0.24
31707 H 103.02696043926281 71.80712711130715 101.75716646536404 H 0.0 **** 0.06
31708 H 104.08019641400773 72.59419978371861 100.55654736464004 H 0.0 **** 0.06
31709 H 104.39652781502633 70.91373513936364 101.05386388550943 H 0.0 **** 0.06
31710 H 104.69511885260002 72.24948302202623 102.19152484896182 H 0.0 **** 0.06
31711 C 102.66879637627233 1.9971920829431724 20.71320946286906 C 0.0 **** -0.24
31712 H 103.11830528571016 2.7063742570765044 20.0186168372052 H 0.0 **** 0.06
31713 H 101.74983424122377 2.419514576561511 21.11875949560104 H 0.0 **** 0.06
31714 H 103.36597234557723 1.7926402145986486 21.525538060754428 H 0.0 **** 0.06
31715 H 102.440618078954 1.068986946273327 20.18742854494232 H 0.0 **** 0.06
31716 C 34.48687880849266 31.90058992124301 60.84829244340005 C 0.0 **** -0.24
31717 H 33.41700520068514 31.880394027625414 60.64210532910433 H 0.0 **** 0.06
31718 H 35.00944844722392 32.364712297456435 60.011020656959424 H 0.0 **** 0.06
31719 H 34.85041816776942 30.881400483651646 60.983424438908266 H 0.0 **** 0.06
31720 H 34.67165782477376 32.47527484527262 61.75582124035919 H 0.0 **** 0.06
31721 C 65.93347940934976 117.1888231960894 58.23064008107468 C 0.0 **** -0.24
31722 H 66.78444291975222 116.50963846758123 58.16737195565315 H 0.0 **** 0.06
31723 H 66.28596443678336 118.18987542760668 58.48182006217627 H 0.0 **** 0.06
31724 H 65.24719344075191 116.84010444831878 59.002265876040155 H 0.0 **** 0.06
31725 H 65.41831082602783 117.21536170236578 57.270139877783436 H 0.0 **** 0.06
31726 C 6.078718074398521 56.43849071612715 59.02196846463527 C 0.0 **** -0.24
31727 H 6.295053320147952 57.05149755327909 59.89710346451479 H 0.0 **** 0.06
31728 H 5.671836132678999 57.06787023959566 58.23079778642383 H 0.0 **** 0.06
31729 H 5.351745127737363 55.67105310377832 59.28729920248258 H 0.0 **** 0.06
31730 H 6.997231327411708 55.964671311392294 58.67460671133866 H 0.0 **** 0.06
31731 C 40.85702305645319 86.68029914978482 79.3165766494885 C 0.0 **** -0.24
31732 H 41.75226552848207 87.21156453315882 79.64199586464642 H 0.0 **** 0.06
31733 H 40.82426541602834 85.70035420327409 79.79343768440322 H 0.0 **** 0.06
31734 H 40.880682363632275 86.55727455139049 78.23429170913317 H 0.0 **** 0.06
31735 H 39.97362138574877 87.25200158482423 79.59966027811873 H 0.0 **** 0.06
31736 C 49.43634318131251 35.79481015998323 0.12421381734893089 C 0.0 **** -0.24
31737 H 49.25300487356725 34.75202252093218 -0.1367605759322732 H 0.0 **** 0.06
31738 H 48.73063818009962 36.10513252689624 0.89504263891566 H 0.0 **** 0.06
31739 H 49.305941324231014 36.41870937389253 -0.7606069316472066 H 0.0 **** 0.06
31740 H 50.45379262438945 35.902772383954215 0.4978945154887935 H 0.0 **** 0.06
31741 C 95.3967993705098 105.12542469012985 81.29666159568413 C 0.0 **** -0.24
31742 H 95.48077530496474 105.11954758216447 82.38360460080636 H 0.0 **** 0.06
31743 H 94.62220012219356 105.83104993986515 80.99681569519274 H 0.0 **** 0.06
31744 H 95.13482741942389 104.12647727360371 80.94732887206544 H 0.0 **** 0.06
31745 H 96.34980646023385 105.42423502166508 80.86106041052909 H 0.0 **** 0.06
31746 C 48.9317894372532 18.169102188666443 58.55683784319063 C 0.0 **** -0.24
31747 H 48.684575383349966 17.124536325512366 58.371045326651235 H 0.0 **** 0.06
31748 H 49.15490402843517 18.306524526150866 59.6151334455222 H 0.0 **** 0.06
31749 H 48.08602450728506 18.797783267340918 58.27951976523307 H 0.0 **** 0.06
31750 H 49.80179253040393 18.44781017438865 57.962612278670456 H 0.0 **** 0.06
31751 C 55.1016099716124 19.654403488234692 54.53771375001966 C 0.0 **** -0.24
31752 H 55.01450904350528 20.739685007708772 54.47477651102068 H 0.0 **** 0.06
31753 H 54.370951382218614 19.27303837908491 55.25165793696837 H 0.0 **** 0.06
31754 H 56.1064669082787 19.38987938898734 54.869918840622574 H 0.0 **** 0.06
31755 H 54.91588156581772 19.21779248950415 53.55722036913434 H 0.0 **** 0.06
31756 C 114.69852885029785 49.90079814850577 61.602191582190585 C 0.0 **** -0.24
31757 H 114.70552371164757 48.91693673421884 62.07089973892943 H 0.0 **** 0.06
31758 H 114.60984310971944 49.787955975425575 60.52121419498562 H 0.0 **** 0.06
31759 H 115.62559167925117 50.42311810933478 61.83903953770201 H 0.0 **** 0.06
31760 H 113.85119413111084 50.47509301200222 61.97868054153278 H 0.0 **** 0.06
31761 C 33.8853855678276 114.5657663758311 12.727611671620451 C 0.0 **** -0.24
31762 H 34.761584711179495 113.92271252412827 12.632393482882094 H 0.0 **** 0.06
31763 H 33.170655861990525 114.32465057598554 11.94045208376238 H 0.0 **** 0.06
31764 H 34.18957832248026 115.6080527982973 12.636434380706135 H 0.0 **** 0.06
31765 H 33.422803753876934 114.4060727011238 13.701007531156904 H 0.0 **** 0.06
31766 C 35.303753636961886 6.929606027262452 106.92528275405971 C 0.0 **** -0.24
31767 H 34.82073468358527 6.8761410454577 107.90034464229268 H 0.0 **** 0.06
31768 H 36.340231360639834 6.603525691338973 107.01535022105912 H 0.0 **** 0.06
31769 H 35.275588272618364 7.956828625689539 106.56164004290298 H 0.0 **** 0.06
31770 H 34.77851571364788 6.2810124563942935 106.22419283729562 H 0.0 **** 0.06
31771 C 106.55977191506028 15.96509539155683 111.67177034737247 C 0.0 **** -0.24
31772 H 106.02839025558254 15.742879375284758 112.59795241836639 H 0.0 **** 0.06
31773 H 105.96561934088365 16.650456335754797 111.067728432622 H 0.0 **** 0.06
31774 H 106.72466895414567 15.041769219201228 111.11769703617097 H 0.0 **** 0.06
31775 H 107.51997185040202 16.42534587559757 111.90667074638344 H 0.0 **** 0.06
31776 C 4.279950334998588 19.30754668041027 33.38251971871463 C 0.0 **** -0.24
31777 H 3.3792387879182826 19.279055272509794 33.9957982229638 H 0.0 **** 0.06
31778 H 5.1588704889456665 19.305313965231477 34.027294838642064 H 0.0 **** 0.06
31779 H 4.27616649613482 20.21281894032731 32.77465917440887 H 0.0 **** 0.06
31780 H 4.303600055299967 18.434153733380754 32.73134771465584 H 0.0 **** 0.06
31781 C 19.617109281986103 92.51779063140563 44.51793673878001 C 0.0 **** -0.24
31782 H 20.341995507057277 91.81631953839351 44.930461661593625 H 0.0 **** 0.06
31783 H 20.130444613644016 93.22974562255169 43.869057171853115 H 0.0 **** 0.06
31784 H 19.1265769977405 93.05473190287088 45.329966745063686 H 0.0 **** 0.06
31785 H 18.871316732423224 91.97208505879146 43.93992768188399 H 0.0 **** 0.06
31786 C 49.21873553906954 97.58304552496764 75.15124714288663 C 0.0 **** -0.24
31787 H 49.34127853913766 97.17725052186421 76.15472764260761 H 0.0 **** 0.06
31788 H 50.172956983119605 97.97647457300562 74.79948067854235 H 0.0 **** 0.06
31789 H 48.48069706937352 98.38562158473931 75.1718510784334 H 0.0 **** 0.06
31790 H 48.88069767425475 96.79573080855553 74.4785500165604 H 0.0 **** 0.06
31791 C 10.81372507337781 81.16415640131092 28.764174285786282 C 0.0 **** -0.24
31792 H 9.962406182870694 81.84428996844136 28.792406323030207 H 0.0 **** 0.06
31793 H 11.008556407150849 80.86847227922559 27.732442090184236 H 0.0 **** 0.06
31794 H 10.591856629751504 80.27866854989287 29.359809432106715 H 0.0 **** 0.06
31795 H 11.693065277305806 81.66471861769628 29.171142245121587 H 0.0 **** 0.06
31796 C 114.65906661594151 1.8873717141903228 100.19990143244644 C 0.0 **** -0.24
31797 H 114.2433557929168 1.283506154951283 99.39314094715843 H 0.0 **** 0.06
31798 H 115.69679146690694 1.6028176373638985 100.37004138515422 H 0.0 **** 0.06
31799 H 114.08241928376006 1.7228031147165837 101.11070089530153 H 0.0 **** 0.06
31800 H 114.6111797512149 2.941971653214921 99.92594985053003 H 0.0 **** 0.06
31801 C 14.61571735575393 34.92104477382273 35.688128098157904 C 0.0 **** -0.24
31802 H 15.613808787986358 34.48417650697931 35.695552422306996 H 0.0 **** 0.06
31803 H 13.929233192101549 34.26726041898888 36.22530314395176 H 0.0 **** 0.06
31804 H 14.277660378131344 35.0375149787495 34.65796364619185 H 0.0 **** 0.06
31805 H 14.643900435776459 35.89762452707649 36.173194452039304 H 0.0 **** 0.06
31806 C 57.802101308258734 40.0272290207497 105.03097249044583 C 0.0 **** -0.24
31807 H 56.96547967339175 40.69136024215527 104.81121671670908 H 0.0 **** 0.06
31808 H 57.42593536872307 39.10408756732204 105.47371248889621 H 0.0 **** 0.06
31809 H 58.48071020033489 40.51604108880261 105.72962853716734 H 0.0 **** 0.06
31810 H 58.33423451193061 39.797621035066896 104.10799850597328 H 0.0 **** 0.06
31811 C 68.04948159827126 27.611934606322194 69.86245694693835 C 0.0 **** -0.24
31812 H 67.98796172824996 27.824388477222165 68.79492462725909 H 0.0 **** 0.06
31813 H 67.57620565371684 26.65188465740814 70.06923355353018 H 0.0 **** 0.06
31814 H 67.5392891008326 28.39643455841474 70.41975929371068 H 0.0 **** 0.06
31815 H 69.09631763186167 27.573872311604617 70.16479481428428 H 0.0 **** 0.06
31816 C 27.142019458115016 34.699825907286034 79.21895052565577 C 0.0 **** -0.24
31817 H 27.302378694268498 34.42511265481498 78.17678400050201 H 0.0 **** 0.06
31818 H 27.55584741639379 35.691699637589345 79.40170586654745 H 0.0 **** 0.06
31819 H 27.63585459185981 33.974936615917194 79.86526073275215 H 0.0 **** 0.06
31820 H 26.073017841726625 34.7075711841591 79.43225344864561 H 0.0 **** 0.06
31821 C 36.010339423118666 17.370051267693498 78.69171137544663 C 0.0 **** -0.24
31822 H 36.383779474107854 17.162636230804253 77.68883047096807 H 0.0 **** 0.06
31823 H 34.98464915269574 17.011735081622135 78.77798730393448 H 0.0 **** 0.06
31824 H 36.036669228495384 18.444945854069033 78.87278314077582 H 0.0 **** 0.06
31825 H 36.636935519456216 16.86185278447357 79.42509684054221 H 0.0 **** 0.06
31826 C 70.8918980902159 95.77462148480569 60.7397736353972 C 0.0 **** -0.24
31827 H 70.41922338811526 96.75710574711081 60.746011151954576 H 0.0 **** 0.06
31828 H 71.27332967404337 95.54920140396808 61.73609655175582 H 0.0 **** 0.06
31829 H 71.71491847698692 95.7721952902107 60.025777087403355 H 0.0 **** 0.06
31830 H 70.15772617318618 95.02123032397938 60.45205328570546 H 0.0 **** 0.06
31831 C 96.95132292070937 70.80818398222283 87.25710574508363 C 0.0 **** -0.24
31832 H 96.55631610967467 71.76298862522015 87.60424878092073 H 0.0 **** 0.06
31833 H 96.13502828656729 70.09189060185477 87.15866545171411 H 0.0 **** 0.06
31834 H 97.67897007793667 70.43278775682296 87.97772072553619 H 0.0 **** 0.06
31835 H 97.43425224382827 70.9447335997732 86.29010369073387 H 0.0 **** 0.06
31836 C 46.80388589441418 37.1145414451845 69.8027129850606 C 0.0 **** -0.24
31837 H 47.50778146307567 37.851653656287105 70.18753257247837 H 0.0 **** 0.06
31838 H 46.66596722772712 36.32392333184085 70.54113026750409 H 0.0 **** 0.06
31839 H 47.1958916475167 36.68578729750637 68.8800407887878 H 0.0 **** 0.06
31840 H 45.84663490211304 37.596313122167466 69.60167268555168 H 0.0 **** 0.06
31841 C 86.57428268713073 58.69317623331647 42.36573403425592 C 0.0 **** -0.24
31842 H 85.63127893151943 58.370240848745034 41.92439602727538 H 0.0 **** 0.06
31843 H 86.56777099746975 59.777764926643194 42.480008315591505 H 0.0 **** 0.06
31844 H 87.39902375727783 58.40136253183601 41.71583367429639 H 0.0 **** 0.06
31845 H 86.69749455318839 58.22520673929461 43.34244994011928 H 0.0 **** 0.06
31846 C 111.44778296912357 103.91100152408137 52.26629601870768 C 0.0 **** -0.24
31847 H 111.46585845964316 104.89334692216693 52.73812793376197 H 0.0 **** 0.06
31848 H 110.75859864900137 103.92612075415772 51.422094657687055 H 0.0 **** 0.06
31849 H 111.11757000563139 103.16592839923783 52.991420226357235 H 0.0 **** 0.06
31850 H 112.44796971045547 103.6580330081986 51.915633878668444 H 0.0 **** 0.06
31851 C 116.63120479198749 114.13918017899624 107.58991283943851 C 0.0 **** -0.24
31852 H 115.8027017955134 113.6927763632072 108.13913223311991 H 0.0 **** 0.06
31853 H 117.46348074314747 113.43519854658014 107.55284179896321 H 0.0 **** 0.06
31854 H 116.95084415093363 115.05259335911677 108.09181983226526 H 0.0 **** 0.06
31855 H 116.30998631456937 114.37507009531402 106.5759837814474 H 0.0 **** 0.06
31856 C 80.95257244029006 43.58412359158771 112.14795115268099 C 0.0 **** -0.24
31857 H 80.61578189488796 44.48303555706133 112.66571080791107 H 0.0 **** 0.06
31858 H 80.2349244416971 43.32271658536797 111.37098382153481 H 0.0 **** 0.06
31859 H 81.03394203189379 42.76376015495657 112.86032769060026 H 0.0 **** 0.06
31860 H 81.92734207683083 43.769999422077206 111.69484518996747 H 0.0 **** 0.06
31861 C 52.32214285597968 117.58436567360677 37.624372255176525 C 0.0 **** -0.24
31862 H 53.30937946380317 117.74817049548929 37.192795601833666 H 0.0 **** 0.06
31863 H 51.76437121802138 118.52071148719196 37.6206476507075 H 0.0 **** 0.06
31864 H 52.42726262355342 117.22784549012509 38.64923214092562 H 0.0 **** 0.06
31865 H 51.7860346984981 116.84014053864234 37.03424290909186 H 0.0 **** 0.06
31866 C 82.19784599311686 78.3176840682521 42.85621482221677 C 0.0 **** -0.24
31867 H 83.24325418222881 78.61524433467258 42.93845945739565 H 0.0 **** 0.06
31868 H 82.06598767583708 77.33042991508572 43.29855650943921 H 0.0 **** 0.06
31869 H 81.91190024809879 78.2863284781242 41.80501055656265 H 0.0 **** 0.06
31870 H 81.57224795111279 79.03850135270395 43.38187255549002 H 0.0 **** 0.06
31871 C 66.03721251216561 2.0206547234922496 49.112824627722034 C 0.0 **** -0.24
31872 H 65.62720692110199 3.0286537579343857 49.18299576811708 H 0.0 **** 0.06
31873 H 66.5252714269977 1.7612243422154972 50.05284484192545 H 0.0 **** 0.06
31874 H 66.76416296580024 1.9799837920500956 48.30211849182473 H 0.0 **** 0.06
31875 H 65.23058967061763 1.3137949207737964 48.91448030701169 H 0.0 **** 0.06
31876 C 39.21403426423882 59.5487291891427 103.23148990070769 C 0.0 **** -0.24
31877 H 38.1502743896547 59.775265585347675 103.30237536789656 H 0.0 **** 0.06
31878 H 39.364566507536324 58.73254971862335 102.52374787225028 H 0.0 **** 0.06
31879 H 39.589210228505664 59.25555462428384 104.21124862288357 H 0.0 **** 0.06
31880 H 39.750474539493354 60.43268252174939 102.88632629247002 H 0.0 **** 0.06
31881 C 79.1625957468801 81.96518527237828 5.0082172711298085 C 0.0 **** -0.24
31882 H 78.72445796779829 81.73656617970639 4.035950718155675 H 0.0 **** 0.06
31883 H 79.67322045602941 82.92701204180116 4.958045001330504 H 0.0 **** 0.06
31884 H 79.87609630052057 81.18665676968678 5.2773452544317365 H 0.0 **** 0.06
31885 H 78.37334893214921 82.0109925674308 5.759049985387605 H 0.0 **** 0.06
31886 C 9.082475365193574 17.651498511589296 28.473308970304032 C 0.0 **** -0.24
31887 H 9.657914224648579 17.95331722672296 27.5981203300885 H 0.0 **** 0.06
31888 H 8.385609309299468 16.86076637749707 28.194599465284327 H 0.0 **** 0.06
31889 H 8.527327838318456 18.50782877445124 28.854353837167977 H 0.0 **** 0.06
31890 H 9.759563329177524 17.284472539785668 29.244021198510595 H 0.0 **** 0.06
31891 C 75.1249336214392 53.92896353213348 89.96642013458444 C 0.0 **** -0.24
31892 H 75.13671819151938 54.81806866003157 89.33485315643216 H 0.0 **** 0.06
31893 H 75.96062921026325 53.2823194037106 89.69906116580282 H 0.0 **** 0.06
31894 H 74.18757989646562 53.391958167084596 89.8192031681615 H 0.0 **** 0.06
31895 H 75.21388192464929 54.22517906857081 91.01140056380032 H 0.0 **** 0.06
31896 C 68.67015051626521 83.97086081950252 84.34888382499622 C 0.0 **** -0.24
31897 H 69.593863290526 83.76208491950669 83.80989137685935 H 0.0 **** 0.06
31898 H 68.1757678759831 83.03186164402311 84.59977419921756 H 0.0 **** 0.06
31899 H 68.01185668450606 84.57224389452986 83.72280544969811 H 0.0 **** 0.06
31900 H 68.89915257109436 84.51725996115192 85.26447799089144 H 0.0 **** 0.06
31901 C 60.087939866261756 44.73347006375775 19.176613341089848 C 0.0 **** -0.24
31902 H 60.438402251390706 43.91160919284769 19.799946574448143 H 0.0 **** 0.06
31903 H 60.46784896410066 45.67597351432261 19.570877074398524 H 0.0 **** 0.06
31904 H 58.99811114519003 44.752521217157806 19.178845165691072 H 0.0 **** 0.06
31905 H 60.446359885098964 44.59451391583008 18.156167896362295 H 0.0 **** 0.06
31906 C 61.822998141124124 19.67013645981585 33.13162541892913 C 0.0 **** -0.24
31907 H 61.91163591723846 18.82924442602257 32.44453922392577 H 0.0 **** 0.06
31908 H 61.12219754377933 19.416137435878085 33.92748699124422 H 0.0 **** 0.06
31909 H 61.457111145272556 20.543814520920236 32.59098413149778 H 0.0 **** 0.06
31910 H 62.79879463683108 19.891514208816517 33.562544887933626 H 0.0 **** 0.06
31911 C 99.7524704880255 21.015742110921412 7.510497491850231 C 0.0 **** -0.24
31912 H 99.0712531821855 20.570687709739047 6.785047183862233 H 0.0 **** 0.06
31913 H 100.52873326790461 21.57234425101858 6.984933268358915 H 0.0 **** 0.06
31914 H 100.2099091232368 20.229148204627293 8.10940433511685 H 0.0 **** 0.06
31915 H 99.19754870745521 21.692227261053425 8.161611392258834 H 0.0 **** 0.06
31916 C 92.29868537004342 17.35202701986259 65.25311157843143 C 0.0 **** -0.24
31917 H 93.38299466685106 17.23381245351743 65.26887046627377 H 0.0 **** 0.06
31918 H 91.94802027205202 17.340580637638766 64.22075186245254 H 0.0 **** 0.06
31919 H 92.03091579779635 18.300061029108292 65.7179496700596 H 0.0 **** 0.06
31920 H 91.8358475661123 16.533156247166175 65.80363712653354 H 0.0 **** 0.06
31921 C 70.7707818268911 108.14559100089431 11.005584970977225 C 0.0 **** -0.24
31922 H 71.44385957867624 107.4281173779082 11.47657286799216 H 0.0 **** 0.06
31923 H 71.24508677132624 108.55518960849258 10.113455832071764 H 0.0 **** 0.06
31924 H 70.55286395669572 108.95267443553189 11.705534070187028 H 0.0 **** 0.06
31925 H 69.84354012624439 107.6447107559494 10.727901052901814 H 0.0 **** 0.06
31926 C 3.5940463940154075 70.60786896795139 25.149427456255474 C 0.0 **** -0.24
31927 H 4.352811643459823 70.01074137061863 24.642708053152596 H 0.0 **** 0.06
31928 H 4.078837355547936 71.31311128541267 25.824696723000514 H 0.0 **** 0.06
31929 H 2.938003431231884 69.95076619518386 25.720786517595222 H 0.0 **** 0.06
31930 H 3.0078579134677685 71.15445864530338 24.41074054342264 H 0.0 **** 0.06
31931 C 41.1638172744249 63.1264041489599 104.25053831628085 C 0.0 **** -0.24
31932 H 41.21055885828474 62.84355164491368 103.19827773401505 H 0.0 **** 0.06
31933 H 40.46692809197805 63.95653786210901 104.37175355855615 H 0.0 **** 0.06
31934 H 42.15400463263592 63.42961005543717 104.58874781691105 H 0.0 **** 0.06
31935 H 40.82200323755245 62.27537918800946 104.84012400450268 H 0.0 **** 0.06
31936 C 5.628548274404295 37.47073138772825 99.12925168966032 C 0.0 **** -0.24
31937 H 5.330751931782913 36.491419879661834 98.75446257101169 H 0.0 **** 0.06
31938 H 6.26910106098839 37.96071934398529 98.39444652483536 H 0.0 **** 0.06
31939 H 6.175223147160395 37.350810454465574 100.06468534969687 H 0.0 **** 0.06
31940 H 4.741722501567921 38.07948568714636 99.30141945002077 H 0.0 **** 0.06
31941 C 59.07284888035823 21.069125084744144 54.91469693699105 C 0.0 **** -0.24
31942 H 59.44059542960479 20.14895809537802 55.36953954583851 H 0.0 **** 0.06
31943 H 59.89402805289429 21.575053651303648 54.406402087367724 H 0.0 **** 0.06
31944 H 58.667704287425 21.72008535328706 55.68972221616036 H 0.0 **** 0.06
31945 H 58.290836212693186 20.829922269703815 54.19529603030776 H 0.0 **** 0.06
31946 C 59.25761450468076 8.243626595082329 30.856173031810556 C 0.0 **** -0.24
31947 H 58.717228389762624 7.913005557899535 29.969317276649235 H 0.0 **** 0.06
31948 H 59.18960004345058 9.328387917591296 30.939422565799873 H 0.0 **** 0.06
31949 H 60.30383619201973 7.950124641942995 30.773885012811718 H 0.0 **** 0.06
31950 H 58.81920395782629 7.782506951658931 31.74141845486554 H 0.0 **** 0.06
31951 C 11.119993100510214 90.68681684333004 94.2254024618295 C 0.0 **** -0.24
31952 H 12.160857585549508 90.91911035272997 94.45100039476557 H 0.0 **** 0.06
31953 H 10.823084020265412 89.78631733762052 94.76320467289713 H 0.0 **** 0.06
31954 H 11.009105874435107 90.5234915964958 93.15288741586505 H 0.0 **** 0.06
31955 H 10.487746170486048 91.51984593188328 94.53347705424801 H 0.0 **** 0.06
31956 C 21.642767441922008 76.18963617212646 116.85602873287078 C 0.0 **** -0.24
31957 H 21.21049935548171 75.19697913718849 116.72582909963549 H 0.0 **** 0.06
31958 H 22.729952628312475 76.11274909763029 116.88101555365304 H 0.0 **** 0.06
31959 H 21.28609645507913 76.6212009547504 117.79143732552348 H 0.0 **** 0.06
31960 H 21.342682425710006 76.82756961257161 116.02421533678293 H 0.0 **** 0.06
31961 C 15.916326962231665 95.01859912343491 47.4560405454522 C 0.0 **** -0.24
31962 H 16.335663171814133 94.6704712013389 46.51210640622543 H 0.0 **** 0.06
31963 H 16.63783640444902 95.66355926888414 47.95773080148629 H 0.0 **** 0.06
31964 H 15.690026109879994 94.1616105887677 48.090849316193996 H 0.0 **** 0.06
31965 H 15.001443905604475 95.57813080180702 47.262771758530064 H 0.0 **** 0.06
31966 C 81.55261259141037 65.92978643849122 83.02232079568697 C 0.0 **** -0.24
31967 H 80.73922654783934 66.47317998518884 82.54022512440525 H 0.0 **** 0.06
31968 H 81.15624497444935 65.33846222880922 83.84757890325139 H 0.0 **** 0.06
31969 H 82.28718260304893 66.63995070970591 83.40294819376749 H 0.0 **** 0.06
31970 H 82.02755137056167 65.27003244905418 82.2968600165386 H 0.0 **** 0.06
31971 C 92.35185956805924 2.7095255894034835 75.08493652339166 C 0.0 **** -0.24
31972 H 91.85025314304997 1.8008818450834383 74.75033052524 H 0.0 **** 0.06
31973 H 91.96227169421047 3.5641848052341345 74.53193156984142 H 0.0 **** 0.06
31974 H 93.42299058687374 2.618616883076669 74.90834252877241 H 0.0 **** 0.06
31975 H 92.1694831567701 2.8530824193181274 76.15026506001396 H 0.0 **** 0.06
31976 C 86.26740726187688 113.08309707660939 4.074633308356207 C 0.0 **** -0.24
31977 H 85.96152660431565 112.33791326960372 4.8094167630785005 H 0.0 **** 0.06
31978 H 85.5171846356794 113.14559802256582 3.2864295235117034 H 0.0 **** 0.06
31979 H 87.22547245700483 112.79412493066792 3.6426231863320115 H 0.0 **** 0.06
31980 H 86.36583865994763 114.05351621642555 4.561885362215975 H 0.0 **** 0.06
31981 C 15.209311256231842 30.241295459272237 93.45424386455358 C 0.0 **** -0.24
31982 H 15.435680799417241 29.205673653060273 93.20201216327251 H 0.0 **** 0.06
31983 H 15.997940202644486 30.640295254308654 94.09257304830697 H 0.0 **** 0.06
31984 H 14.25630891684284 30.286891683346227 93.98173521072653 H 0.0 **** 0.06
31985 H 15.147315106022972 30.832321246373766 92.54065503590834 H 0.0 **** 0.06
31986 C 96.27081599304285 17.372612510525244 117.33696073568774 C 0.0 **** -0.24
31987 H 97.00170832517682 18.00859034723662 117.83595886591507 H 0.0 **** 0.06
31988 H 96.38527235664924 16.34551919672532 117.68709468420462 H 0.0 **** 0.06
31989 H 96.43269574185524 17.409864538646573 116.26017257554281 H 0.0 **** 0.06
31990 H 95.26564639162359 17.72510038023438 117.56682353202194 H 0.0 **** 0.06
31991 C 78.27101928969387 40.61633939930371 24.774626805581796 C 0.0 **** -0.24
31992 H 78.09407614261886 39.621930869877446 25.185483737832065 H 0.0 **** 0.06
31993 H 78.58266200612786 40.5288753316231 23.732991302464654 H 0.0 **** 0.06
31994 H 79.05504945342693 41.11146433686406 25.34770234811701 H 0.0 **** 0.06
31995 H 77.35272689443929 41.201461641766414 24.831921262505844 H 0.0 **** 0.06
31996 C 56.243047940711506 1.5182316222011991 77.76060322417538 C 0.0 **** -0.24
31997 H 56.24169946748114 0.42908175005533167 77.7335802507717 H 0.0 **** 0.06
31998 H 57.248195550213666 1.874585880524478 77.98746779708605 H 0.0 **** 0.06
31999 H 55.55330760834431 1.862723502612596 78.53161180547477 H 0.0 **** 0.06
32000 H 55.92878088100673 1.9070408912863854 76.79270288916618 H 0.0 **** 0.06
32001 C 70.80958729829905 14.274121910175126 61.706302616074794 C 0.0 **** -0.24
32002 H 71.26363412687562 14.987129049401375 62.39374920206927 H 0.0 **** 0.06
32003 H 71.27966171825835 14.363624084322765 60.72701973441406 H 0.0 **** 0.06
32004 H 69.742951617563 14.483453202440273 61.61839714650236 H 0.0 **** 0.06
32005 H 70.95039950795828 13.262129657817184 62.086326546813666 H 0.0 **** 0.06
32006 C 4.047090631927034 24.625194311477237 91.24993510477196 C 0.0 **** -0.24
32007 H 3.6441029315135864 24.03313468218287 92.07069925432288 H 0.0 **** 0.06
32008 H 4.375522715812707 23.96078939152318 90.45043334655998 H 0.0 **** 0.06
32009 H 4.8935985326552895 25.211922612317487 91.60609492735438 H 0.0 **** 0.06
32010 H 3.273459246064718 25.294223483184567 90.87168772760535 H 0.0 **** 0.06
32011 C 98.80953638073512 54.897582128572935 23.766081593136732 C 0.0 **** -0.24
32012 H 97.81346422306476 54.93324326722535 24.205123729053582 H 0.0 **** 0.06
32013 H 99.39258687866644 54.11422455302437 24.25113895088333 H 0.0 **** 0.06
32014 H 99.30380280301577 55.85949278309636 23.9083709679212 H 0.0 **** 0.06
32015 H 98.72917158140822 54.683887870585465 22.70109111032548 H 0.0 **** 0.06
32016 C 13.903314881891447 112.20539911585382 27.89644020408386 C 0.0 **** -0.24
32017 H 13.34379829611504 111.26931467060088 27.888841185965617 H 0.0 **** 0.06
32018 H 14.9716185385048 111.99037417538854 27.921721503636007 H 0.0 **** 0.06
32019 H 13.627922917800277 112.78552118295276 28.77672434831723 H 0.0 **** 0.06
32020 H 13.66806141078763 112.77605399974223 26.99727533698919 H 0.0 **** 0.06
32021 C 76.42759265200263 88.11196880740272 117.83142155942048 C 0.0 **** -0.24
32022 H 76.13251078121274 87.143013460025 118.23379424593094 H 0.0 **** 0.06
32023 H 76.39186702875261 88.860601745535 118.62304014794935 H 0.0 **** 0.06
32024 H 75.74383985223184 88.39605073283565 117.03128397283349 H 0.0 **** 0.06
32025 H 77.44176878113831 88.04841259828308 117.4366672365823 H 0.0 **** 0.06
32026 C 56.85150591959501 6.400576922958038 0.5291919014746043 C 0.0 **** -0.24
32027 H 55.86791374351003 6.794952638695747 0.2735753756653736 H 0.0 **** 0.06
32028 H 57.500228816674536 6.450433520210083 -0.34625003651048303 H 0.0 **** 0.06
32029 H 56.7545476065587 5.364221588906474 0.8521179822163418 H 0.0 **** 0.06
32030 H 57.281887403685005 6.994308465222161 1.335245352503847 H 0.0 **** 0.06
32031 C 115.81755323843404 72.54132076251898 106.24072097888717 C 0.0 **** -0.24
32032 H 115.0880309775188 71.94617335948402 106.78908796418924 H 0.0 **** 0.06
32033 H 116.37651355154733 71.89664250942025 105.5621246974622 H 0.0 **** 0.06
32034 H 116.50503623692427 73.01181091524222 106.94430449641536 H 0.0 **** 0.06
32035 H 115.30206271445661 73.31149211455522 105.66787185755004 H 0.0 **** 0.06
32036 C 27.76901078396375 96.51855625361674 6.00269532903765 C 0.0 **** -0.24
32037 H 28.327283284641084 95.62975004474163 5.7139502395766755 H 0.0 **** 0.06
32038 H 27.1151950932921 96.28102263150362 6.842558090676903 H 0.0 **** 0.06
32039 H 27.167664257502366 96.85943492938202 5.159594692160027 H 0.0 **** 0.06
32040 H 28.46397134018116 97.30620924299313 6.293989286594012 H 0.0 **** 0.06
32041 C 113.47205064542533 50.97243020314852 6.077982518912604 C 0.0 **** -0.24
32042 H 112.55627867664231 50.45299640390749 5.7940003772673005 H 0.0 **** 0.06
32043 H 114.02941858807003 51.24125233234298 5.1797073331728996 H 0.0 **** 0.06
32044 H 114.08166768566497 50.31854478812056 6.701501155358628 H 0.0 **** 0.06
32045 H 113.2204322779304 51.874917524075954 6.633928856113105 H 0.0 **** 0.06
32046 C 1.4682105027387706 66.69547492335846 58.383767606595256 C 0.0 **** -0.24
32047 H 0.9122852031203053 66.15041252612917 57.62084911897492 H 0.0 **** 0.06
32048 H 1.086884766457871 67.71408792702428 58.4527660106406 H 0.0 **** 0.06
32049 H 2.5244828313132786 66.71914801102199 58.115469393785816 H 0.0 **** 0.06
32050 H 1.3498609913805382 66.19590106662423 59.345825289142795 H 0.0 **** 0.06
32051 C 76.42200233486577 99.30028318714267 9.449152712581707 C 0.0 **** -0.24
32052 H 75.82088495425901 99.51753578924792 10.33088830085785 H 0.0 **** 0.06
32053 H 76.12871313787275 99.96416537768607 8.635753997792179 H 0.0 **** 0.06
32054 H 76.26568362758195 98.26409990888084 9.147956285872198 H 0.0 **** 0.06
32055 H 77.47644156792606 99.45510534978902 9.681617061210602 H 0.0 **** 0.06
32056 C 18.46255407738755 38.27369675116081 47.851907007194825 C 0.0 **** -0.24
32057 H 18.363132020920887 37.19632334761998 47.97868748926294 H 0.0 **** 0.06
32058 H 18.59517527605611 38.74413797364972 48.82690820037183 H 0.0 **** 0.06
32059 H 17.56363190742931 38.66829407341114 47.37791283578076 H 0.0 **** 0.06
32060 H 19.327261621957106 38.48864600165758 47.2237531450308 H 0.0 **** 0.06
32061 C 28.36870707366782 53.50821353763811 13.965065406990703 C 0.0 **** -0.24
32062 H 27.305131662417466 53.55069143957951 13.733415979837702 H 0.0 **** 0.06
32063 H 28.84570327073149 52.75080099280578 13.343377856645901 H 0.0 **** 0.06
32064 H 28.501850322390567 53.252764259079356 15.01634515787228 H 0.0 **** 0.06
32065 H 28.822811346232626 54.4798017509556 13.76744382487729 H 0.0 **** 0.06
32066 C 75.06642074538053 4.267377399240754 16.607047730217033 C 0.0 **** -0.24
32067 H 74.56814009144466 4.1764384381294395 15.642030607336693 H 0.0 **** 0.06
32068 H 75.01762810221913 3.3126286771046747 17.131792233646138 H 0.0 **** 0.06
32069 H 74.5695345384774 5.034764204197499 17.201024317750097 H 0.0 **** 0.06
32070 H 76.10902256794924 4.545342147919774 16.453553130541962 H 0.0 **** 0.06
32071 C 74.45496515269878 10.996639238592763 100.4601662914601 C 0.0 **** -0.24
32072 H 74.5174606535659 11.429702112470938 99.46216158636528 H 0.0 **** 0.06
32073 H 73.9477713372201 11.693359286408402 101.12738301975457 H 0.0 **** 0.06
32074 H 75.46019767271275 10.801512827621131 100.83453491961762 H 0.0 **** 0.06
32075 H 73.89581052237253 10.061678684129209 100.41665232690036 H 0.0 **** 0.06
32076 C 14.566408133610764 4.838361681664111 105.15890525154782 C 0.0 **** -0.24
32077 H 13.732702519679208 4.342115913014879 104.66175469292747 H 0.0 **** 0.06
32078 H 14.187142950875085 5.4595345983999835 105.96990750683915 H 0.0 **** 0.06
32079 H 15.098414742490888 5.461687043281017 104.44080429759143 H 0.0 **** 0.06
32080 H 15.246743656339902 4.088218779820011 105.56333179965156 H 0.0 **** 0.06
32081 C 6.955894696393809 107.24455564772103 109.80817490340567 C 0.0 **** -0.24
32082 H 7.8925825504479725 106.69862764851243 109.91898117297612 H 0.0 **** 0.06
32083 H 6.526790099384375 107.03421850923536 108.82817585170017 H 0.0 **** 0.06
32084 H 7.14586710083768 108.3140316804799 109.90050630203206 H 0.0 **** 0.06
32085 H 6.2592418708471484 106.93092031495061 110.58510555778943 H 0.0 **** 0.06
32086 C 60.54814002357037 91.9004819149745 57.248065293871434 C 0.0 **** -0.24
32087 H 61.19496714874896 92.51739001517544 57.87219321212234 H 0.0 **** 0.06
32088 H 59.531619896934785 91.92923495721519 57.63970240880792 H 0.0 **** 0.06
32089 H 60.912441091534646 90.87284295890328 57.25419045475536 H 0.0 **** 0.06
32090 H 60.555989157324774 92.28295325639277 56.227486231243915 H 0.0 **** 0.06
32091 C 32.19732587933436 42.67692294269415 118.40323758605865 C 0.0 **** -0.24
32092 H 31.235657586966568 42.38405910827671 117.98185837310982 H 0.0 **** 0.06
32093 H 32.34886584561616 43.74571157942593 118.25303425005544 H 0.0 **** 0.06
32094 H 32.995040469937635 42.12355900018626 117.90758109605096 H 0.0 **** 0.06
32095 H 32.20877507948552 42.45421364056211 119.47025823310142 H 0.0 **** 0.06
32096 C 85.30955625349674 85.35504140746576 113.57188922041551 C 0.0 **** -0.24
32097 H 84.927663399171 85.45659308122202 114.58747508256037 H 0.0 **** 0.06
32098 H 85.91946893320898 86.22405270979453 113.32555320129697 H 0.0 **** 0.06
32099 H 84.47369881936348 85.28673877946278 112.87527763666412 H 0.0 **** 0.06
32100 H 85.9160185454891 84.4525531882995 113.5002789466798 H 0.0 **** 0.06
32101 C 24.562607052472444 112.3468167342723 35.263756203589054 C 0.0 **** -0.24
32102 H 23.727468598014532 113.04197239274407 35.35778293222975 H 0.0 **** 0.06
32103 H 24.5109413299132 111.60748923281 36.063831914780735 H 0.0 **** 0.06
32104 H 25.501388219819574 112.8956579430972 35.33610810180966 H 0.0 **** 0.06
32105 H 24.50967904216178 111.84391584031948 34.29828591888409 H 0.0 **** 0.06
32106 C 106.70457164602743 87.64677928465471 109.81185606274126 C 0.0 **** -0.24
32107 H 107.61027237239679 87.1155648928711 110.10393313344954 H 0.0 **** 0.06
32108 H 106.64826013393173 88.59237631202447 110.35045684665627 H 0.0 **** 0.06
32109 H 105.83322457074962 87.03773492583812 110.05283494428959 H 0.0 **** 0.06
32110 H 106.72703796572327 87.84056821430232 108.73920946888373 H 0.0 **** 0.06
32111 C 112.74790136744596 30.225279502361218 69.32797538036371 C 0.0 **** -0.24
32112 H 113.36154623739631 29.515137142391694 68.77354830660681 H 0.0 **** 0.06
32113 H 111.98395572247135 30.63674612066042 68.66908253506537 H 0.0 **** 0.06
32114 H 113.3766879203083 31.031476138327037 69.7040417910064 H 0.0 **** 0.06
32115 H 112.27100367086116 29.715217794361877 70.16537985459951 H 0.0 **** 0.06
32116 C 21.46597241193734 62.78571754253471 25.49678264850985 C 0.0 **** -0.24
32117 H 20.871422429005683 62.03700031741175 24.972248123143743 H 0.0 **** 0.06
32118 H 20.808023723205277 63.41794122049896 26.09405845230492 H 0.0 **** 0.06
32119 H 21.999257520003333 63.399242935079656 24.770953379300806 H 0.0 **** 0.06
32120 H 22.183331902261802 62.287589071341586 26.148704373674207 H 0.0 **** 0.06
32121 C 39.73547791522881 6.657216599100629 88.24110544191495 C 0.0 **** -0.24
32122 H 40.74429563520823 7.059733960771631 88.34130648227278 H 0.0 **** 0.06
32123 H 39.53765549852275 5.9674264928785785 89.06177680739614 H 0.0 **** 0.06
32124 H 39.64810608099111 6.12792247176384 87.29224430359847 H 0.0 **** 0.06
32125 H 39.01428618373862 7.473574928659602 88.26930277438629 H 0.0 **** 0.06
32126 C 117.6484658798972 69.91687818414007 0.0069454618735935725 C 0.0 **** -0.24
32127 H 117.57658502280546 69.120455908249 -0.733556565318171 H 0.0 **** 0.06
32128 H 117.38812155825607 70.8680489191602 -0.45681374883368164 H 0.0 **** 0.06
32129 H 118.66833025888276 69.96584167977534 0.38963965430584224 H 0.0 **** 0.06
32130 H 116.96171901413555 69.71280013872766 0.8282483570962071 H 0.0 **** 0.06
32131 C 3.2142316260870416 37.60220544702719 54.400513491260256 C 0.0 **** -0.24
32132 H 3.0275244797688856 37.64785052377516 55.47313994100943 H 0.0 **** 0.06
32133 H 4.288233123364321 37.560055825961456 54.21974083657942 H 0.0 **** 0.06
32134 H 2.7986561908157768 38.489854746256185 53.92164977820187 H 0.0 **** 0.06
32135 H 2.7400836867796414 36.711363942532614 53.98743266350158 H 0.0 **** 0.06
32136 C 10.628356466970388 77.08585338529824 56.84524338151101 C 0.0 **** -0.24
32137 H 11.648482478209218 77.0343573781671 57.22457252459594 H 0.0 **** 0.06
32138 H 10.6490162071741 77.28941320298594 55.77382504845059 H 0.0 **** 0.06
32139 H 10.091234820616421 77.88444171722668 57.356911808457085 H 0.0 **** 0.06
32140 H 10.125197516618101 76.13604321063835 57.02547449372338 H 0.0 **** 0.06
32141 C 3.6055768201663074 4.68240298101928 63.87699999041325 C 0.0 **** -0.24
32142 H 2.636848865587556 4.587802602401823 64.36544892579167 H 0.0 **** 0.06
32143 H 3.7344043313253277 3.867154302395747 63.16390761998923 H 0.0 **** 0.06
32144 H 4.396418886508002 4.638117787660519 64.6263725724429 H 0.0 **** 0.06
32145 H 3.656733679523537 5.6361084717701 63.35162832501845 H 0.0 **** 0.06
32146 C 4.982588998428767 53.126753228099574 101.26559280872681 C 0.0 **** -0.24
32147 H 5.347866215587075 52.957347701564686 102.27802198401903 H 0.0 **** 0.06
32148 H 4.6874243909224305 54.17141371183118 101.1561668856308 H 0.0 **** 0.06
32149 H 4.122364103884024 52.48452875300984 101.07749866474762 H 0.0 **** 0.06
32150 H 5.772642197908397 52.89542490494176 100.55036851881343 H 0.0 **** 0.06
32151 C 71.05120823473246 34.591494104945866 107.31800427622497 C 0.0 **** -0.24
32152 H 71.53158931357703 35.37612773966757 107.90280823113133 H 0.0 **** 0.06
32153 H 70.5569379550225 35.033492884467506 106.45317047166822 H 0.0 **** 0.06
32154 H 70.31346082285694 34.078480253997526 107.93593726943243 H 0.0 **** 0.06
32155 H 71.80375456721612 33.87760363705135 106.98327904424949 H 0.0 **** 0.06
32156 C 26.081618384934856 35.891205884180316 116.06819483903617 C 0.0 **** -0.24
32157 H 25.411774795677374 35.71601718976355 116.91004818509613 H 0.0 **** 0.06
32158 H 26.503775503083524 36.89366459352708 116.14281057669398 H 0.0 **** 0.06
32159 H 25.525134847224514 35.79911958463455 115.13541524959686 H 0.0 **** 0.06
32160 H 26.886029862456915 35.155237215464034 116.08565671709071 H 0.0 **** 0.06
32161 C 44.00390478298414 39.94062556135691 118.77764583457056 C 0.0 **** -0.24
32162 H 43.766310877161885 40.587157453261014 117.93225167858692 H 0.0 **** 0.06
32163 H 44.402763761003854 38.99490131054459 118.41073749939206 H 0.0 **** 0.06
32164 H 43.09986996039052 39.7535071554351 119.35675833247078 H 0.0 **** 0.06
32165 H 44.745787573338504 40.42743767504189 119.4098549770147 H 0.0 **** 0.06
32166 C 52.993829066004366 60.27685691776488 59.9026573960166 C 0.0 **** -0.24
32167 H 53.033170842450744 61.15748108650357 59.260343644202 H 0.0 **** 0.06
32168 H 53.63000876581831 60.43463526998389 60.77336741087007 H 0.0 **** 0.06
32169 H 53.34502819677866 59.40730173711983 59.34796065713066 H 0.0 **** 0.06
32170 H 51.96714369489143 60.110770738204785 60.22778514992063 H 0.0 **** 0.06
32171 C 37.73696479085888 35.196139536614936 85.28377516696887 C 0.0 **** -0.24
32172 H 37.86910035831903 35.256929127425366 84.20403245590288 H 0.0 **** 0.06
32173 H 37.068481751171646 34.36796541816014 85.52220274817012 H 0.0 **** 0.06
32174 H 37.30657963581547 36.1271509483374 85.6507763343605 H 0.0 **** 0.06
32175 H 38.70414563031139 35.030396901908915 85.75865745849421 H 0.0 **** 0.06
32176 C 54.95831941555963 46.74961648352122 93.79976601440222 C 0.0 **** -0.24
32177 H 55.86330468069124 47.23375434609066 94.1649600590043 H 0.0 **** 0.06
32178 H 54.17077103664843 46.83954125918107 94.54841325788311 H 0.0 **** 0.06
32179 H 55.1608802456401 45.69489404746617 93.61029217325483 H 0.0 **** 0.06
32180 H 54.638321699258825 47.23027628134713 92.87539856746662 H 0.0 **** 0.06
32181 C 88.76085561613701 65.92236238792867 116.77056186534837 C 0.0 **** -0.24
32182 H 89.1106354769478 66.41811329037483 117.67555114894196 H 0.0 **** 0.06
32183 H 88.46667067902058 66.67174181845093 116.03567053622432 H 0.0 **** 0.06
32184 H 87.90414405743516 65.29196321041036 117.00961578173528 H 0.0 **** 0.06
32185 H 89.56116152303406 65.30610229338305 116.36133760079257 H 0.0 **** 0.06
32186 C 49.858934984299026 18.180077035940656 113.20189287747624 C 0.0 **** -0.24
32187 H 50.13538811703012 17.251667820579314 113.7005666200853 H 0.0 **** 0.06
32188 H 48.96627043897038 18.01649761235481 112.59768233085285 H 0.0 **** 0.06
32189 H 50.678017846069764 18.505423859444676 112.55936010271236 H 0.0 **** 0.06
32190 H 49.65744592401734 18.947991918927784 113.94875060115854 H 0.0 **** 0.06
32191 C 118.33260653585496 103.14739331148144 14.377490384778596 C 0.0 **** -0.24
32192 H 117.25519722413657 103.27561271635903 14.27759305047772 H 0.0 **** 0.06
32193 H 118.58545059914502 102.99594875134488 15.42735373362224 H 0.0 **** 0.06
32194 H 118.83966013503277 104.03828415148331 14.006382918023434 H 0.0 **** 0.06
32195 H 118.65089031663786 102.28059556075351 13.797825226453739 H 0.0 **** 0.06
32196 C 39.47279195985615 42.86761308026706 70.90404358791693 C 0.0 **** -0.24
32197 H 39.408431931632066 42.98097880754 69.82192318767764 H 0.0 **** 0.06
32198 H 39.08006893889558 41.89057502068573 71.19033537260543 H 0.0 **** 0.06
32199 H 38.887733025747224 43.65054972161602 71.38626325975608 H 0.0 **** 0.06
32200 H 40.513915826557366 42.94678125707361 71.2160692788583 H 0.0 **** 0.06
32201 C 56.809493040360785 115.85444159813702 19.95582363961455 C 0.0 **** -0.24
32202 H 56.81387417474807 116.55448847387125 20.791396351152784 H 0.0 **** 0.06
32203 H 57.78554472827606 115.86221356015126 19.47009912785873 H 0.0 **** 0.06
32204 H 56.04281337694318 116.14977639459828 19.238720935321012 H 0.0 **** 0.06
32205 H 56.59440101249016 114.85080387035408 20.324802492130644 H 0.0 **** 0.06
32206 C 54.14360256949059 47.568355643326555 70.7183933578097 C 0.0 **** -0.24
32207 H 54.66472610432036 48.3095691539127 71.32421788342833 H 0.0 **** 0.06
32208 H 54.799134644980406 46.71455993496086 70.54475811165395 H 0.0 **** 0.06
32209 H 53.86338357674761 48.012294898024614 69.76237353065932 H 0.0 **** 0.06
32210 H 53.24716595191397 47.23699858640819 71.24222390549721 H 0.0 **** 0.06
32211 C 32.10955122564246 54.49029469926708 7.547076686074231 C 0.0 **** -0.24
32212 H 32.48027721434755 53.820711487607696 8.322987194085908 H 0.0 **** 0.06
32213 H 31.038814732896213 54.33341031658276 7.414011801975448 H 0.0 **** 0.06
32214 H 32.62674659072617 54.28119489230116 6.610599350414116 H 0.0 **** 0.06
32215 H 32.2932519508299 55.523579237721464 7.8406403863262 H 0.0 **** 0.06
32216 C 20.79321755066428 12.625422421153019 95.48916299119352 C 0.0 **** -0.24
32217 H 19.929647914559354 13.254229884706092 95.2765362650828 H 0.0 **** 0.06
32218 H 20.664653165457736 12.149108658315185 96.46166442023542 H 0.0 **** 0.06
32219 H 21.694722430546733 13.238363034562212 95.50075397553633 H 0.0 **** 0.06
32220 H 20.884409341928773 11.860502537867433 94.71834448599049 H 0.0 **** 0.06
32221 C 111.03318203139114 99.43635475799414 72.06424043429439 C 0.0 **** -0.24
32222 H 111.40987017743711 99.4608145953944 73.08679719404591 H 0.0 **** 0.06
32223 H 111.40986398275498 98.54599105716792 71.5591871188409 H 0.0 **** 0.06
32224 H 111.37025634234614 100.32587988802791 71.53188103352807 H 0.0 **** 0.06
32225 H 109.94408844301736 99.412429319142 72.07880849891706 H 0.0 **** 0.06
32226 C 69.54470130780152 53.7426166963327 8.555688798308779 C 0.0 **** -0.24
32227 H 68.94943512318918 52.830032185881294 8.519161103936824 H 0.0 **** 0.06
32228 H 70.56659942853986 53.49811266038927 8.847751548443654 H 0.0 **** 0.06
32229 H 69.11231059027006 54.42825371356906 9.284614538146656 H 0.0 **** 0.06
32230 H 69.54979998900609 54.21236088714289 7.572512353236675 H 0.0 **** 0.06
32231 C 72.16963348791506 102.94966171408191 61.90504934509016 C 0.0 **** -0.24
32232 H 73.06500928510991 102.49704595581537 61.479184676822314 H 0.0 **** 0.06
32233 H 71.84765310316254 103.77979527009879 61.27648871372949 H 0.0 **** 0.06
32234 H 72.38995690794701 103.3157788380237 62.90750402040459 H 0.0 **** 0.06
32235 H 71.37544550373178 102.20368749113979 61.956465066091965 H 0.0 **** 0.06
32236 C 108.7933784747436 60.05051712506131 92.06940638259886 C 0.0 **** -0.24
32237 H 108.7385548090148 60.875197888699496 92.78127201296724 H 0.0 **** 0.06
32238 H 108.53403692557387 60.41343547318299 91.07453611984744 H 0.0 **** 0.06
32239 H 108.09546926001383 59.26825317093013 92.36503504191484 H 0.0 **** 0.06
32240 H 109.80706096972924 59.64856056856603 92.05678242683854 H 0.0 **** 0.06
32241 C 70.27263526092793 0.47376581231475257 48.992881377253525 C 0.0 **** -0.24
32242 H 70.67098629859845 0.7975592249192687 48.03196266321095 H 0.0 **** 0.06
32243 H 69.61109035725798 1.2438659227455844 49.38966561507988 H 0.0 **** 0.06
32244 H 71.0952408620683 0.30721808344311796 49.68934496484752 H 0.0 **** 0.06
32245 H 69.71488937873326 -0.4526184704804592 48.861100594319694 H 0.0 **** 0.06
32246 C 53.493078808635346 7.878427177667405 88.44619928827768 C 0.0 **** -0.24
32247 H 53.271689141639285 6.811810994056728 88.44633471945576 H 0.0 **** 0.06
32248 H 53.067747003373086 8.33763853562867 87.552946554779 H 0.0 **** 0.06
32249 H 54.57279342498839 8.025242114234459 88.45122398616093 H 0.0 **** 0.06
32250 H 53.06003702358083 8.339526794139616 89.33343289876643 H 0.0 **** 0.06
32251 C 49.6166578820185 115.92979822101867 27.537337381187797 C 0.0 **** -0.24
32252 H 48.696104252856315 115.57110657600018 27.998652820993527 H 0.0 **** 0.06
32253 H 50.29111430713715 116.29618778732953 28.310467844298444 H 0.0 **** 0.06
32254 H 49.383596955602684 116.73741688359894 26.843737898130087 H 0.0 **** 0.06
32255 H 50.09252095864662 115.11201317392833 26.99626667337833 H 0.0 **** 0.06
32256 C 36.04355879069061 52.7279041543746 104.85900373524208 C 0.0 **** -0.24
32257 H 35.98187612147257 53.05344242078155 103.82043564778871 H 0.0 **** 0.06
32258 H 35.97360023314212 53.595006333095135 105.51565141244546 H 0.0 **** 0.06
32259 H 36.99375127580538 52.221325415326824 105.02494567833676 H 0.0 **** 0.06
32260 H 35.2238198148799 52.042381636829106 105.07316591614676 H 0.0 **** 0.06
32261 C 108.88277008609407 38.699302181712255 36.780422092750115 C 0.0 **** -0.24
32262 H 107.84224033030233 38.56809390576936 36.48510408120151 H 0.0 **** 0.06
32263 H 109.28555301743779 39.5928457147817 36.30212144312836 H 0.0 **** 0.06
32264 H 109.46062181676547 37.82876316228584 36.470482186767214 H 0.0 **** 0.06
32265 H 108.9415374145645 38.80867301511276 37.863375460650985 H 0.0 **** 0.06
32266 C 16.184080778164457 35.46346051328225 42.91825276439022 C 0.0 **** -0.24
32267 H 15.55060393877909 34.70515659031393 42.456962310993646 H 0.0 **** 0.06
32268 H 17.02980312102318 34.98041755930829 43.40846887863151 H 0.0 **** 0.06
32269 H 15.605356870453022 36.02043845899535 43.654656007731376 H 0.0 **** 0.06
32270 H 16.549634189328174 36.14632974931515 42.15122219822868 H 0.0 **** 0.06
32271 C 65.07539492287233 19.70050376217452 50.08161869830019 C 0.0 **** -0.24
32272 H 64.4582918243068 18.983900669687376 49.53949477285873 H 0.0 **** 0.06
32273 H 64.51239866830741 20.622361346631404 50.23387338546659 H 0.0 **** 0.06
32274 H 65.97482394002779 19.914033990650353 49.50455559720839 H 0.0 **** 0.06
32275 H 65.35411216449444 19.28080521493971 51.04795889254901 H 0.0 **** 0.06
32276 C 109.28697110918685 76.86095415969183 16.505836373932553 C 0.0 **** -0.24
32277 H 108.51136098582856 77.60868172423628 16.673308851764887 H 0.0 **** 0.06
32278 H 109.78576294344927 77.06045125239484 15.557789886011037 H 0.0 **** 0.06
32279 H 108.83445147771994 75.86946398130556 16.476073742159343 H 0.0 **** 0.06
32280 H 110.0145095634853 76.90416393163164 17.316977756488228 H 0.0 **** 0.06
32281 C 78.30861633988818 10.23075988253666 109.05432255630637 C 0.0 **** -0.24
32282 H 79.27868792399534 10.618409746191873 109.36589323983266 H 0.0 **** 0.06
32283 H 77.52919995302528 10.942975971457287 109.32635738016975 H 0.0 **** 0.06
32284 H 78.12061764066337 9.278906915923983 109.55182334371834 H 0.0 **** 0.06
32285 H 78.30565467031369 10.082678070811625 107.97459548246346 H 0.0 **** 0.06
32286 C 5.12062667763189 93.23752558804264 69.47080783046084 C 0.0 **** -0.24
32287 H 4.073404852963506 93.28783517066663 69.76584317853417 H 0.0 **** 0.06
32288 H 5.73556513156376 93.03508281848016 70.34848788112117 H 0.0 **** 0.06
32289 H 5.420210025710219 94.1882809963237 69.02947738594833 H 0.0 **** 0.06
32290 H 5.255776620393192 92.44012518142654 68.74064989999192 H 0.0 **** 0.06
32291 C 91.3831790153105 46.22883786973375 99.60073912119898 C 0.0 **** -0.24
32292 H 90.43387177391256 46.690162416647496 99.87151199169341 H 0.0 **** 0.06
32293 H 91.79925057184931 45.7183327250589 100.47003285892686 H 0.0 **** 0.06
32294 H 92.07782905503203 46.99729846553427 99.26319928667797 H 0.0 **** 0.06
32295 H 91.22051547762868 45.50759955283698 98.79899008838393 H 0.0 **** 0.06
32296 C 106.71241032758064 96.1955997404203 24.5217626848997 C 0.0 **** -0.24
32297 H 105.68227259832585 95.98160385367777 24.80862965206063 H 0.0 **** 0.06
32298 H 106.73710517943866 96.53555975595324 23.48668013231034 H 0.0 **** 0.06
32299 H 107.31197281893719 95.29022324492342 24.620968750849897 H 0.0 **** 0.06
32300 H 107.11592361089791 96.9724924673794 25.170550973861424 H 0.0 **** 0.06
32301 C 91.64203057526217 5.479694802587574 32.35992285076968 C 0.0 **** -0.24
32302 H 90.83910666100655 4.953717718987718 32.87563189408621 H 0.0 **** 0.06
32303 H 91.30762814196851 5.7655132218405925 31.36210248861812 H 0.0 **** 0.06
32304 H 92.51111167855012 4.827187918215884 32.279422301177675 H 0.0 **** 0.06
32305 H 91.910400794721 6.3738045437497135 32.923482804140605 H 0.0 **** 0.06
32306 C 30.203085221179037 115.116404896678 107.964589077335 C 0.0 **** -0.24
32307 H 30.597269876611392 115.7438920644337 108.76367784293194 H 0.0 **** 0.06
32308 H 29.294670915395102 115.56628244332697 107.56446636117158 H 0.0 **** 0.06
32309 H 29.975574192858062 114.12632635685792 108.36056865764027 H 0.0 **** 0.06
32310 H 30.945888773511854 115.02859681836443 107.17221217968546 H 0.0 **** 0.06
32311 C 52.56326120535985 53.48589429232254 17.927894428395746 C 0.0 **** -0.24
32312 H 52.0044371960535 52.67605222962288 17.45974265597799 H 0.0 **** 0.06
32313 H 52.83975827335619 54.22108280136865 17.172003689118327 H 0.0 **** 0.06
32314 H 53.463926980477126 53.086275035720064 18.392301674984537 H 0.0 **** 0.06
32315 H 51.943439509051444 53.96192332148246 18.68837654963859 H 0.0 **** 0.06
32316 C 17.09670068347822 91.37199248178172 103.78429083212194 C 0.0 **** -0.24
32317 H 16.144611744170163 91.9017205565402 103.80833998973614 H 0.0 **** 0.06
32318 H 17.30147811948069 90.94880635630619 104.76793218014635 H 0.0 **** 0.06
32319 H 17.89191545633082 92.06682195464955 103.51489889482241 H 0.0 **** 0.06
32320 H 17.048349953419233 90.57127885377278 103.0465981882956 H 0.0 **** 0.06
32321 C 31.554235765992928 63.39840889648673 103.83479984790492 C 0.0 **** -0.24
32322 H 31.478506567293437 64.31847325272119 104.41458709843894 H 0.0 **** 0.06
32323 H 30.91846600532159 62.63416081898225 104.28248979857162 H 0.0 **** 0.06
32324 H 32.58876584539155 63.05468352074277 103.83197708710748 H 0.0 **** 0.06
32325 H 31.231161605983175 63.58663746620536 102.81109205596263 H 0.0 **** 0.06
32326 C 59.860884745271164 28.263661681072875 15.87428860589542 C 0.0 **** -0.24
32327 H 60.44766628945143 27.88153208044625 15.038224595582601 H 0.0 **** 0.06
32328 H 59.976767241283824 27.601183509494092 16.73179281010888 H 0.0 **** 0.06
32329 H 58.81018962142866 28.309607544230772 15.588828850825521 H 0.0 **** 0.06
32330 H 60.20976972705762 29.262468888255626 16.13624660474061 H 0.0 **** 0.06
32331 C 110.21011379317 26.43950279578104 24.14614898313792 C 0.0 **** -0.24
32332 H 110.17329117083511 26.254348547816164 25.220238196666685 H 0.0 **** 0.06
32333 H 109.45836198600898 25.828619194769715 23.64647508077239 H 0.0 **** 0.06
32334 H 111.1991672580497 26.1818789893087 23.76698700945849 H 0.0 **** 0.06
32335 H 110.00998498856023 27.493082845128015 23.952590005275056 H 0.0 **** 0.06
32336 C 105.8407790647205 84.88357943142421 113.00873941684414 C 0.0 **** -0.24
32337 H 105.92001714950126 85.9071620709623 113.37618400946751 H 0.0 **** 0.06
32338 H 105.23324998907808 84.87018561693299 112.10319611797122 H 0.0 **** 0.06
32339 H 105.37385530915466 84.2602869436505 113.7697966491576 H 0.0 **** 0.06
32340 H 106.83625819372895 84.50027214860174 112.7847563861107 H 0.0 **** 0.06
32341 C 91.10927470215228 114.59513651609302 7.887922624200826 C 0.0 **** -0.24
32342 H 90.5046154349404 113.8227899398558 8.365150672388495 H 0.0 **** 0.06
32343 H 90.53293907547709 115.51880490552719 7.82470401574875 H 0.0 **** 0.06
32344 H 91.38542914765449 114.27039212628165 6.885012189335924 H 0.0 **** 0.06
32345 H 92.00903852438566 114.76677262444366 8.476628436720233 H 0.0 **** 0.06
32346 C 105.62718617374588 104.10521224438176 16.891901777392206 C 0.0 **** -0.24
32347 H 105.87649033187685 104.01128809373435 15.83557030279087 H 0.0 **** 0.06
32348 H 105.24532212816791 103.15306034452979 17.26131512992572 H 0.0 **** 0.06
32349 H 104.86632388375196 104.87620317942293 17.017401501356858 H 0.0 **** 0.06
32350 H 106.51980753481416 104.38145238288487 17.45316291132343 H 0.0 **** 0.06
32351 C 57.095945909471 74.73071780363483 0.9497664457214281 C 0.0 **** -0.24
32352 H 56.68179331696777 75.6940005063482 0.6538769922878878 H 0.0 **** 0.06
32353 H 58.11107990381558 74.6388165798605 0.5640882330919954 H 0.0 **** 0.06
32354 H 56.47833834674486 73.9294530597115 0.5437414580631756 H 0.0 **** 0.06
32355 H 57.11215753403758 74.66107473335478 2.038136183683477 H 0.0 **** 0.06
32356 C 34.02833735382847 91.65233562148416 101.16424173552446 C 0.0 **** -0.24
32357 H 33.4144378252317 91.11573517661085 100.4396480543345 H 0.0 **** 0.06
32358 H 34.949605688478336 91.98343862573495 100.68521876188828 H 0.0 **** 0.06
32359 H 34.26843659683961 90.99038596470314 101.99685847304374 H 0.0 **** 0.06
32360 H 33.47888534908272 92.51837653358544 101.53494684085925 H 0.0 **** 0.06
32361 C 91.35062754384498 95.65819383353431 63.1580706860677 C 0.0 **** -0.24
32362 H 91.66843054166404 96.18113027098076 62.255718015947764 H 0.0 **** 0.06
32363 H 91.93468041401763 94.74524630335455 63.273047223285744 H 0.0 **** 0.06
32364 H 90.29391002074053 95.40647246517273 63.07842210644998 H 0.0 **** 0.06
32365 H 91.50689253768877 96.30123193981467 64.02452428976315 H 0.0 **** 0.06
32366 C 63.34408922665221 84.35696793169328 89.16572694068492 C 0.0 **** -0.24
32367 H 63.247671502061614 83.62774263236406 88.36151948136558 H 0.0 **** 0.06
32368 H 64.38478658619701 84.67005958088265 89.24959108523325 H 0.0 **** 0.06
32369 H 63.02228794325881 83.90667036556172 90.10494716300613 H 0.0 **** 0.06
32370 H 62.72078838531515 85.22432576183604 88.94616811347822 H 0.0 **** 0.06
32371 C 68.98173433696431 7.969953021911181 90.96093828321719 C 0.0 **** -0.24
32372 H 69.01985235671114 8.32383506453344 89.93073001274192 H 0.0 **** 0.06
32373 H 69.97486106095155 8.038237643712534 91.40485616448083 H 0.0 **** 0.06
32374 H 68.64681828304302 6.9332583722192425 90.97668482963783 H 0.0 **** 0.06
32375 H 68.28575629833983 8.586085128306763 91.53093075061145 H 0.0 **** 0.06
32376 C 18.280357705213003 65.17307168513642 31.274851131725 C 0.0 **** -0.24
32377 H 18.099293090941213 64.41305929423777 32.0351138218098 H 0.0 **** 0.06
32378 H 18.171536348201066 64.73072110398971 30.28519999323089 H 0.0 **** 0.06
32379 H 19.291189831876476 65.56515156983127 31.389067467513144 H 0.0 **** 0.06
32380 H 17.561043348337517 65.98347800159388 31.393388191306173 H 0.0 **** 0.06
32381 C 66.3288399558079 31.562483569224284 96.86303017552652 C 0.0 **** -0.24
32382 H 65.98687700036885 30.750489334846876 96.22054568099426 H 0.0 **** 0.06
32383 H 65.5340681190192 32.30215964881397 96.96619834644378 H 0.0 **** 0.06
32384 H 67.20654627799621 32.03216096096446 96.41780507221455 H 0.0 **** 0.06
32385 H 66.58690054478834 31.16512929590631 97.8439571866729 H 0.0 **** 0.06
32386 C 115.63980380490287 81.3002722443739 34.51388351009854 C 0.0 **** -0.24
32387 H 116.46022580120254 81.83253328728799 34.99574503339801 H 0.0 **** 0.06
32388 H 115.25614064557033 80.53600647330794 35.1906493864347 H 0.0 **** 0.06
32389 H 116.00107703805526 80.82835984578995 33.59979710959203 H 0.0 **** 0.06
32390 H 114.84375213907535 82.00307834412524 34.27026118894872 H 0.0 **** 0.06
32391 C 35.13095093841995 45.21510596477481 73.6134801191991 C 0.0 **** -0.24
32392 H 35.43916396151843 46.2580621936076 73.68355565452566 H 0.0 **** 0.06
32393 H 35.48069133247735 44.67297438148705 74.4927995435173 H 0.0 **** 0.06
32394 H 35.56058357266738 44.76822251005831 72.71713725829756 H 0.0 **** 0.06
32395 H 34.042926423046794 45.160552107281774 73.56108562783427 H 0.0 **** 0.06
32396 C 56.50466422488955 96.92312857665357 15.282141681606277 C 0.0 **** -0.24
32397 H 56.11207895327513 95.96187207442716 14.950549597919064 H 0.0 **** 0.06
32398 H 55.91003949254193 97.2887880518092 16.119705521497906 H 0.0 **** 0.06
32399 H 56.454360638768264 97.6387891264238 14.461079479732746 H 0.0 **** 0.06
32400 H 57.541417821046025 96.80371310669602 15.597182172965688 H 0.0 **** 0.06
32401 C 76.68254372979152 115.93799645493816 109.64931924794078 C 0.0 **** -0.24
32402 H 76.7242008316313 116.98162286698074 109.33718437342483 H 0.0 **** 0.06
32403 H 77.26616745868563 115.80895675354986 110.56136076313933 H 0.0 **** 0.06
32404 H 77.09364266441816 115.30591464780359 108.86236829151989 H 0.0 **** 0.06
32405 H 75.64648847916772 115.65554920780421 109.83730771646609 H 0.0 **** 0.06
32406 C 51.518799691966166 18.186481518791055 44.194426399721806 C 0.0 **** -0.24
32407 H 51.26780143727049 17.185716800489175 44.54717343970026 H 0.0 **** 0.06
32408 H 51.56559283099958 18.869674621407523 45.042133969335794 H 0.0 **** 0.06
32409 H 50.7561749985143 18.5263284996072 43.494027121176856 H 0.0 **** 0.06
32410 H 52.48646525228608 18.16211443883353 43.692660303502436 H 0.0 **** 0.06
32411 C 3.3875441332738205 61.93012529793918 117.71592970552754 C 0.0 **** -0.24
32412 H 3.5969405540677712 60.96245701855769 117.2590950992222 H 0.0 **** 0.06
32413 H 2.5264534364758333 62.38455069485986 117.22616351131519 H 0.0 **** 0.06
32414 H 4.25503070100109 62.57993475747562 117.6037813796143 H 0.0 **** 0.06
32415 H 3.1714684575516117 61.79140867583177 118.77522407746456 H 0.0 **** 0.06
32416 C 69.90005500851967 100.4366061580777 74.90674154961948 C 0.0 **** -0.24
32417 H 70.56479086456176 100.72774399133215 75.71939000394065 H 0.0 **** 0.06
32418 H 69.85297272931285 101.23953338599844 74.17075124842458 H 0.0 **** 0.06
32419 H 68.90192610376303 100.24816616401878 75.30261735079964 H 0.0 **** 0.06
32420 H 70.27970583350373 99.53043626233745 74.43405457493827 H 0.0 **** 0.06
32421 C 53.42481122387398 57.59519552198276 48.066962705474836 C 0.0 **** -0.24
32422 H 54.33156683042537 57.27350905712953 47.55474141055471 H 0.0 **** 0.06
32423 H 53.13043722182669 58.57894208735132 47.70149560152425 H 0.0 **** 0.06
32424 H 53.6131554618099 57.646881188982576 49.13952209032828 H 0.0 **** 0.06
32425 H 52.62553584258511 56.8805130811337 47.871953947255534 H 0.0 **** 0.06
32426 C 81.5745280670489 14.168795717600688 107.70909202366204 C 0.0 **** -0.24
32427 H 82.52275135975441 14.156675796149841 108.24834092605835 H 0.0 **** 0.06
32428 H 81.76610074074551 14.288547802819494 106.64254481654842 H 0.0 **** 0.06
32429 H 80.96424312246512 14.998653403685182 108.06567873967077 H 0.0 **** 0.06
32430 H 81.04752898869987 13.230134481344692 107.88132630061307 H 0.0 **** 0.06
32431 C 10.163498325153853 70.18540951306076 60.03894752794176 C 0.0 **** -0.24
32432 H 10.919483880887526 69.83491289820819 60.74193939026256 H 0.0 **** 0.06
32433 H 9.517012295204637 69.35424819257153 59.75790977013625 H 0.0 **** 0.06
32434 H 10.651920283549885 70.5832071030853 59.149398970106716 H 0.0 **** 0.06
32435 H 9.567462609897063 70.96918806203911 60.50774092984989 H 0.0 **** 0.06
32436 C 76.33893642715174 112.22549563858583 17.635115083098924 C 0.0 **** -0.24
32437 H 76.10971410897466 112.9995865311406 18.367780091670824 H 0.0 **** 0.06
32438 H 76.96008623641862 111.45856103700982 18.099028724517325 H 0.0 **** 0.06
32439 H 76.87349184481997 112.66796817539155 16.7943254841567 H 0.0 **** 0.06
32440 H 75.41145865451051 111.77601334938153 17.28032046124119 H 0.0 **** 0.06
32441 C 45.796726720982946 111.39017510244192 39.49778325517124 C 0.0 **** -0.24
32442 H 46.0482420891295 111.3819606215116 38.4377634229179 H 0.0 **** 0.06
32443 H 46.571989447412236 110.8675979037407 40.05831457280604 H 0.0 **** 0.06
32444 H 44.83984190407932 110.88862706315844 39.646644442443886 H 0.0 **** 0.06
32445 H 45.72567563824697 112.42036631449956 39.846399614764806 H 0.0 **** 0.06
32446 C 16.992047781204818 100.93013392257009 59.79474062251459 C 0.0 **** -0.24
32447 H 17.300958252883447 99.98402646440513 59.35021889101022 H 0.0 **** 0.06
32448 H 15.912275519174898 100.92260609557519 59.94898348295491 H 0.0 **** 0.06
32449 H 17.25895319663348 101.74908357766893 59.126720761535175 H 0.0 **** 0.06
32450 H 17.495374613776814 101.06277040091655 60.752403000512466 H 0.0 **** 0.06
32451 C 87.49729694388381 56.014798928387876 28.10447836003351 C 0.0 **** -0.24
32452 H 87.52777683904571 56.820134697151445 27.369717229526685 H 0.0 **** 0.06
32453 H 86.6966509408011 55.3206576423878 27.84740935820072 H 0.0 **** 0.06
32454 H 87.31222894318648 56.433209808251206 29.094115048348357 H 0.0 **** 0.06
32455 H 88.45046603892791 55.48683207533111 28.104924923721484 H 0.0 **** 0.06
32456 C 75.71178006137578 5.548602279798672 78.944906744331 C 0.0 **** -0.24
32457 H 75.32349820540003 6.413575627838782 78.40636062027713 H 0.0 **** 0.06
32458 H 76.77152398722939 5.427843942166646 78.72139214699087 H 0.0 **** 0.06
32459 H 75.17007454818409 4.655199905309388 78.63463123669413 H 0.0 **** 0.06
32460 H 75.58120292314464 5.698790087533581 80.01609148124368 H 0.0 **** 0.06
32461 C 67.47578871418705 73.6916104561871 13.262820218491072 C 0.0 **** -0.24
32462 H 67.55011863173297 72.7540490356833 12.713358555711181 H 0.0 **** 0.06
32463 H 66.88560886870332 73.5372953096034 14.166606810944302 H 0.0 **** 0.06
32464 H 66.99314266475835 74.44215002426077 12.637304684530648 H 0.0 **** 0.06
32465 H 68.4746223256349 74.03339519163148 13.53530914955968 H 0.0 **** 0.06
32466 C 66.34918335847885 53.688144265449466 49.30126222258856 C 0.0 **** -0.24
32467 H 65.726792721581 53.157114020517895 50.020981820619504 H 0.0 **** 0.06
32468 H 67.31688360577255 53.1908318467315 49.221548504819175 H 0.0 **** 0.06
32469 H 66.49493916250955 54.714716636093044 49.6355075027155 H 0.0 **** 0.06
32470 H 65.85903268406616 53.68778070972712 48.32779227386225 H 0.0 **** 0.06
32471 C 80.27314001030726 58.810420045523955 6.299419773568701 C 0.0 **** -0.24
32472 H 79.41104059083179 59.476471847562124 6.343693897428295 H 0.0 **** 0.06
32473 H 80.12431541319089 58.077028711146454 5.5073516470302195 H 0.0 **** 0.06
32474 H 80.38337546425515 58.29716395283833 7.254649533375968 H 0.0 **** 0.06
32475 H 81.17125355912921 59.39270660607022 6.094107895131344 H 0.0 **** 0.06
32476 C 9.052584745102472 44.560945859854144 46.528322344374146 C 0.0 **** -0.24
32477 H 8.151563738505725 44.2095976458979 47.03200299592487 H 0.0 **** 0.06
32478 H 9.430451017060978 43.77589175924729 45.871328536997055 H 0.0 **** 0.06
32479 H 9.810080833611256 44.809114512052574 47.271019792798256 H 0.0 **** 0.06
32480 H 8.816970789945273 45.447344720642775 45.938818544734715 H 0.0 **** 0.06
32481 C 93.79765822235441 59.565076859844304 24.67341071406303 C 0.0 **** -0.24
32482 H 94.85956416835535 59.37026136852155 24.524813168360353 H 0.0 **** 0.06
32483 H 93.67500353856241 60.42261111644789 25.335928237530887 H 0.0 **** 0.06
32484 H 93.32749111980678 58.68943953526807 25.12066313150646 H 0.0 **** 0.06
32485 H 93.32954141196706 59.77782929058727 23.712046758824442 H 0.0 **** 0.06
32486 C 66.5132107916344 90.23815868367407 79.28344293955737 C 0.0 **** -0.24
32487 H 65.51987011197212 90.08006926153655 79.70247223587981 H 0.0 **** 0.06
32488 H 66.47504412283479 90.11534525665323 78.20136775863003 H 0.0 **** 0.06
32489 H 67.20683854810198 89.5130042954691 79.70912735579515 H 0.0 **** 0.06
32490 H 66.85091940185558 91.2471591587863 79.52310852089963 H 0.0 **** 0.06
32491 C 110.67947637225791 33.30239530371961 53.86642154285448 C 0.0 **** -0.24
32492 H 110.48068305123618 32.675024440697655 52.99791446466537 H 0.0 **** 0.06
32493 H 109.73685586951922 33.67866278577219 54.266490361685726 H 0.0 **** 0.06
32494 H 111.30977547115421 34.14185148597733 53.572056186179054 H 0.0 **** 0.06
32495 H 111.18996634662733 32.715391525017765 54.63011397864187 H 0.0 **** 0.06
32496 C 101.43446313055972 24.34639143182045 10.701240864840223 C 0.0 **** -0.24
32497 H 101.55331358780612 23.410762874613113 10.153845757679527 H 0.0 **** 0.06
32498 H 100.39401000935246 24.668727924937627 10.646760284294743 H 0.0 **** 0.06
32499 H 102.07490293363949 25.109331127058113 10.259173648703083 H 0.0 **** 0.06
32500 H 101.71449012763233 24.195048162499347 11.74298487086455 H 0.0 **** 0.06
32501 C 112.20134302554273 39.647078669767794 97.654851220728 C 0.0 **** -0.24
32502 H 112.2217475718418 40.299493199379725 98.52711748478333 H 0.0 **** 0.06
32503 H 111.25017803661399 39.765351984241136 97.13436755698893 H 0.0 **** 0.06
32504 H 112.31509473361454 38.610519911841976 97.97302898617437 H 0.0 **** 0.06
32505 H 113.0181758595785 39.912101755435515 96.98377265842049 H 0.0 **** 0.06
32506 C 38.10316817668115 44.43498759700552 44.84406157363895 C 0.0 **** -0.24
32507 H 38.84412676618405 45.23006189829087 44.75848227828942 H 0.0 **** 0.06
32508 H 38.278600212481194 43.69055825715279 44.0664831438321 H 0.0 **** 0.06
32509 H 37.104874213658945 44.85499099278226 44.726516669449495 H 0.0 **** 0.06
32510 H 38.187185844050376 43.96481509788376 45.824213329131965 H 0.0 **** 0.06
32511 C 97.54513334385712 101.90110620016247 117.16002221712051 C 0.0 **** -0.24
32512 H 97.89433100340335 101.20057662041413 116.4012199420083 H 0.0 **** 0.06
32513 H 97.6756824720473 101.46002801387453 118.14827296240237 H 0.0 **** 0.06
32514 H 96.48965596892339 102.1189204799638 116.9949826596654 H 0.0 **** 0.06
32515 H 98.12138857361123 102.82415312742646 117.09453278739693 H 0.0 **** 0.06
32516 C 52.22214286359281 79.67518646534131 8.70729638962101 C 0.0 **** -0.24
32517 H 51.91158065658675 78.98548253227762 7.9220682661506565 H 0.0 **** 0.06
32518 H 51.58781543774796 80.56097576205002 8.683430591444601 H 0.0 **** 0.06
32519 H 53.26032960769578 79.96531038106036 8.546632297873618 H 0.0 **** 0.06
32520 H 52.12773937090731 79.1860169445788 9.677170491651758 H 0.0 **** 0.06
32521 C 53.37106214039852 96.21599823969498 64.54054451932296 C 0.0 **** -0.24
32522 H 52.38022114533317 95.76607159608591 64.59483679477626 H 0.0 **** 0.06
32523 H 53.412850723711614 97.08511938840667 65.19701668986562 H 0.0 **** 0.06
32524 H 53.57279568053434 96.52587071590298 63.51505087660337 H 0.0 **** 0.06
32525 H 54.11910763866547 95.48671315066025 64.85317021051446 H 0.0 **** 0.06
32526 C 0.8806570722908305 44.29128465342143 81.39752525834825 C 0.0 **** -0.24
32527 H 0.7263814826084172 44.452784788173176 80.33099664877778 H 0.0 **** 0.06
32528 H 0.45991719176579693 43.32742625278041 81.68418971838122 H 0.0 **** 0.06
32529 H 0.3874181584501031 45.0849385936678 81.95939304615152 H 0.0 **** 0.06
32530 H 1.9483714813515292 44.302101174440736 81.61601896351974 H 0.0 **** 0.06
32531 C 10.157888062458902 113.33714311448863 41.50445816498407 C 0.0 **** -0.24
32532 H 9.840401942610189 114.0534845929002 42.26207020848892 H 0.0 **** 0.06
32533 H 9.552599952496298 112.43330115064627 41.58336102377919 H 0.0 **** 0.06
32534 H 11.207821552337883 113.08657181615091 41.65905543464552 H 0.0 **** 0.06
32535 H 10.030801895077929 113.77505493983037 40.51433043668234 H 0.0 **** 0.06
32536 C 68.29878382227548 103.07642612432349 84.64205150241568 C 0.0 **** -0.24
32537 H 68.58446909238725 102.1237154989 85.08856017148543 H 0.0 **** 0.06
32538 H 67.29491951713828 102.99478249103376 84.22325627493876 H 0.0 **** 0.06
32539 H 69.00285387299556 103.33141262536202 83.8499588186998 H 0.0 **** 0.06
32540 H 68.31154171402204 103.85389895543338 85.40566644514718 H 0.0 **** 0.06
32541 C 21.548293569224114 82.4547200006065 89.20724000260586 C 0.0 **** -0.24
32542 H 21.913052746053125 81.6056690258032 89.78462610220723 H 0.0 **** 0.06
32543 H 21.473064664668215 82.17437768742963 88.15678231866417 H 0.0 **** 0.06
32544 H 22.239272253772896 83.29015875975202 89.3125301367186 H 0.0 **** 0.06
32545 H 20.564443260608897 82.74839102266137 89.57634650127028 H 0.0 **** 0.06
32546 C 110.56540514814895 26.877270146550813 113.11745025813005 C 0.0 **** -0.24
32547 H 110.24095705624615 27.85668646156165 112.76547766737906 H 0.0 **** 0.06
32548 H 110.61432799827458 26.88074312425266 114.20630702430141 H 0.0 **** 0.06
32549 H 111.55020720038408 26.651646631096924 112.70920465117135 H 0.0 **** 0.06
32550 H 109.85332950422168 26.120458051870685 112.78709083305918 H 0.0 **** 0.06
32551 C 38.37484496845468 106.98037735187887 110.45348405593872 C 0.0 **** -0.24
32552 H 37.30567660142364 106.78236370009606 110.53538778410072 H 0.0 **** 0.06
32553 H 38.53618476720408 107.8376749961993 109.79917767021165 H 0.0 **** 0.06
32554 H 38.87527745261903 106.10595190141302 110.03735182167664 H 0.0 **** 0.06
32555 H 38.7809058943503 107.19510712325263 111.44179989567075 H 0.0 **** 0.06
32556 C 90.40318860433862 103.015216299239 100.09079166490994 C 0.0 **** -0.24
32557 H 89.53487299212244 103.67192712000136 100.03274431827572 H 0.0 **** 0.06
32558 H 90.39424020349165 102.48495685628305 101.04336053387857 H 0.0 **** 0.06
32559 H 91.31290356716056 103.61050217139203 100.01423470058387 H 0.0 **** 0.06
32560 H 90.37001315118007 102.295586305043 99.27301381727108 H 0.0 **** 0.06
32561 C 13.506504162843186 51.51509199559946 41.29413127666557 C 0.0 **** -0.24
32562 H 13.594788284384776 50.88851178558551 42.18110910410971 H 0.0 **** 0.06
32563 H 14.483752168958745 51.92663614052384 41.041567770728044 H 0.0 **** 0.06
32564 H 12.808816689337903 52.32849608228403 41.49146476427921 H 0.0 **** 0.06
32565 H 13.138947186750016 50.91517128153697 40.46080021765085 H 0.0 **** 0.06
32566 C 22.44531414002364 30.716923313048213 40.598482884266275 C 0.0 **** -0.24
32567 H 23.525536276106322 30.823822088171795 40.69485366860789 H 0.0 **** 0.06
32568 H 22.06095213525913 31.499477233911506 39.94354560790174 H 0.0 **** 0.06
32569 H 21.982176322941882 30.805067404062854 41.58086595941154 H 0.0 **** 0.06
32570 H 22.213899084142952 29.740683228552157 40.173461839980575 H 0.0 **** 0.06
32571 C 37.38034594098528 109.30299807943567 68.91053827006172 C 0.0 **** -0.24
32572 H 36.417331368713775 109.33738864790573 68.40116729731884 H 0.0 **** 0.06
32573 H 38.12326198351127 108.84914597027495 68.25383617007594 H 0.0 **** 0.06
32574 H 37.28830758364995 108.70983292259501 69.82130701514856 H 0.0 **** 0.06
32575 H 37.69174446078975 110.31574776257145 69.16794972396877 H 0.0 **** 0.06
32576 C 11.123879652033281 32.75453586485844 85.4787630567171 C 0.0 **** -0.24
32577 H 10.572895239714825 31.837237153154263 85.68484018829767 H 0.0 **** 0.06
32578 H 11.133470042032059 33.38080170642195 86.37134063969256 H 0.0 **** 0.06
32579 H 10.641328166194256 33.292556068153715 84.66246536197627 H 0.0 **** 0.06
32580 H 12.146817293294816 32.50853954131384 85.19645316849989 H 0.0 **** 0.06
32581 C 78.89472894258623 41.96772178846888 102.85958329795079 C 0.0 **** -0.24
32582 H 79.86722552104985 42.06052463832904 102.37586786588653 H 0.0 **** 0.06
32583 H 78.33418848301821 41.155601417636376 102.39541249971697 H 0.0 **** 0.06
32584 H 78.34250082664661 42.90086204533469 102.74692471841047 H 0.0 **** 0.06
32585 H 79.03541139602214 41.753635732180925 103.91925504050718 H 0.0 **** 0.06
32586 C 111.43287096422726 34.814599458698815 47.07261864510963 C 0.0 **** -0.24
32587 H 111.22427394503923 35.86644679910139 46.87522799291943 H 0.0 **** 0.06
32588 H 111.8180698432974 34.34507376386818 46.16773523384472 H 0.0 **** 0.06
32589 H 110.51421768908801 34.31471503050126 47.379200233051705 H 0.0 **** 0.06
32590 H 112.17347507329403 34.734091770473576 47.86873840671442 H 0.0 **** 0.06
32591 C 14.646736266927405 81.14589723786199 43.33034908536007 C 0.0 **** -0.24
32592 H 14.17304547554565 81.84922115513197 44.01574832140494 H 0.0 **** 0.06
32593 H 14.471631109902262 80.12700510332127 43.67846498813552 H 0.0 **** 0.06
32594 H 15.718960412583414 81.33915615402316 43.29495202858297 H 0.0 **** 0.06
32595 H 14.221954083773227 81.2676228098814 42.333912156286814 H 0.0 **** 0.06
32596 C 79.91375668895009 112.24655448608331 49.25046488120037 C 0.0 **** -0.24
32597 H 80.3042860648709 111.89954801158453 48.29304597142209 H 0.0 **** 0.06
32598 H 78.83381091006709 112.09699518975157 49.27655650342797 H 0.0 **** 0.06
32599 H 80.13741079649142 113.30586599521183 49.37111501585326 H 0.0 **** 0.06
32600 H 80.37983032708937 111.68139747231493 50.05752403341768 H 0.0 **** 0.06
32601 C 10.639964963456379 0.5061558618248085 95.60782866935219 C 0.0 **** -0.24
32602 H 10.45817268189603 0.9684384230725414 96.57851606547081 H 0.0 **** 0.06
32603 H 10.14309426244668 1.0869651014361494 94.83036372724362 H 0.0 **** 0.06
32604 H 10.245302617407106 -0.5101819266031953 95.61042425789086 H 0.0 **** 0.06
32605 H 11.712191358080673 0.479117352286778 95.41285414478628 H 0.0 **** 0.06
32606 C 9.3019832645534 96.00814293533372 36.36402505558574 C 0.0 **** -0.24
32607 H 8.740928405193756 95.73671589403071 37.25815220789242 H 0.0 **** 0.06
32608 H 9.005533222806235 97.0053414224212 36.03808005376173 H 0.0 **** 0.06
32609 H 9.0916981347672 95.28839710590182 35.57176513521827 H 0.0 **** 0.06
32610 H 10.368339484646214 96.00040260595097 36.58816793004095 H 0.0 **** 0.06
32611 C 40.037902368196114 89.03312490415635 45.6224695634971 C 0.0 **** -0.24
32612 H 39.972525955487725 88.84221843961672 46.69326374065486 H 0.0 **** 0.06
32613 H 40.84594300456422 88.43715673552919 45.19603322628202 H 0.0 **** 0.06
32614 H 40.23884494863694 90.09063567874153 45.452779920217054 H 0.0 **** 0.06
32615 H 39.09591610741815 88.76107458680355 45.14718961642983 H 0.0 **** 0.06
32616 C 110.50697129337188 99.2264800871616 27.764064398868868 C 0.0 **** -0.24
32617 H 111.47961440868917 99.38155105509352 28.231998143604756 H 0.0 **** 0.06
32618 H 110.06120694992816 100.19291411446687 27.52507885440798 H 0.0 **** 0.06
32619 H 109.85588554206788 98.68509979163741 28.45012144061218 H 0.0 **** 0.06
32620 H 110.63286157161217 98.64883350267428 26.84889798281347 H 0.0 **** 0.06
32621 C 5.170654960003759 116.13109656048029 49.21127726810519 C 0.0 **** -0.24
32622 H 6.219443721034395 116.17853167567579 48.91871343543917 H 0.0 **** 0.06
32623 H 4.714266472497741 117.11380092375542 49.09077300876547 H 0.0 **** 0.06
32624 H 5.098325948942659 115.82147047232739 50.25464674418299 H 0.0 **** 0.06
32625 H 4.651097014422845 115.40867591699511 48.582424760315604 H 0.0 **** 0.06
32626 C 54.79566381769399 5.001756381023556 37.66055256808423 C 0.0 **** -0.24
32627 H 54.05809051328271 5.580165390149954 37.1025424284002 H 0.0 **** 0.06
32628 H 54.5362958309986 3.9443135497680917 37.616219335493724 H 0.0 **** 0.06
32629 H 54.80450992626413 5.331989526413723 38.699168652502664 H 0.0 **** 0.06
32630 H 55.78290861228135 5.153585908324057 37.22251813352523 H 0.0 **** 0.06
32631 C 78.09738048354097 36.45317746073417 56.27688489922743 C 0.0 **** -0.24
32632 H 78.33871173380632 36.19613538826712 57.308198216838086 H 0.0 **** 0.06
32633 H 78.71282780895962 35.85965638244758 55.600810280942746 H 0.0 **** 0.06
32634 H 78.29354826126226 37.51328465914587 56.11069342226259 H 0.0 **** 0.06
32635 H 77.04415674173364 36.24533249204862 56.08802836507835 H 0.0 **** 0.06
32636 C 84.71853688129517 113.61429977229282 11.36672456789816 C 0.0 **** -0.24
32637 H 85.15665431440613 114.59723152514641 11.190027299201773 H 0.0 **** 0.06
32638 H 84.00987245525045 113.67707062991369 12.19356446768515 H 0.0 **** 0.06
32639 H 85.50709759094414 112.90456233156813 11.616875209111925 H 0.0 **** 0.06
32640 H 84.20082608034741 113.28127071056092 10.46756623934931 H 0.0 **** 0.06
32641 C 6.222312942017279 20.938150100109024 102.32774591469484 C 0.0 **** -0.24
32642 H 6.312165006252885 20.87829143584665 103.41288285494846 H 0.0 **** 0.06
32643 H 7.215241775053041 20.9150527046382 101.8786196349235 H 0.0 **** 0.06
32644 H 5.722597883909286 21.86847817259718 102.05627555640729 H 0.0 **** 0.06
32645 H 5.638057008180697 20.092436607922565 101.96455961971668 H 0.0 **** 0.06
32646 C 34.85531198090032 39.404342632504296 74.24402779407623 C 0.0 **** -0.24
32647 H 34.11127887413749 40.03998956855426 73.76265127685431 H 0.0 **** 0.06
32648 H 34.881858869731325 39.62180079135986 75.31177204210317 H 0.0 **** 0.06
32649 H 35.83481499796541 39.598387161263304 73.80831336835391 H 0.0 **** 0.06
32650 H 34.59074758281076 38.3579513388662 74.0919833735586 H 0.0 **** 0.06
32651 C 93.37584360716667 60.18301347785078 37.695522771118334 C 0.0 **** -0.24
32652 H 92.78307282188172 61.0750579839399 37.8990344169049 H 0.0 **** 0.06
32653 H 94.16590639804352 60.42695985196792 36.98391709468764 H 0.0 **** 0.06
32654 H 92.73457276705568 59.407781666528905 37.276516925581745 H 0.0 **** 0.06
32655 H 93.82051106652676 59.82445300437422 38.624544235466786 H 0.0 **** 0.06
32656 C 75.61369981255518 109.92942073994041 31.155749799823013 C 0.0 **** -0.24
32657 H 74.96164129905932 109.8702655273566 32.026881760381 H 0.0 **** 0.06
32658 H 75.02199595935053 110.18137544115609 30.27532831837675 H 0.0 **** 0.06
32659 H 76.10244482757136 108.96642184914472 31.00224698114647 H 0.0 **** 0.06
32660 H 76.36896228209343 110.69867545774106 31.318760192706634 H 0.0 **** 0.06
32661 C 32.20759610363558 12.229852770072284 1.7765792380428707 C 0.0 **** -0.24
32662 H 32.98690517969325 12.992546255179121 1.7966206564223626 H 0.0 **** 0.06
32663 H 31.314762253602794 12.609497145445062 2.272752994606833 H 0.0 **** 0.06
32664 H 32.55949211315348 11.337698160778757 2.294186131861096 H 0.0 **** 0.06
32665 H 31.970601583608044 11.979827956715184 0.7424749123746324 H 0.0 **** 0.06
32666 C 24.015985911542913 78.56174495852002 52.61581943468935 C 0.0 **** -0.24
32667 H 24.775320544880174 79.34024466891663 52.5415382888936 H 0.0 **** 0.06
32668 H 24.481655684229622 77.63138030623594 52.94309902449719 H 0.0 **** 0.06
32669 H 23.551991284607936 78.41229052579331 51.64038722992509 H 0.0 **** 0.06
32670 H 23.25652485898719 78.86161362858468 53.33754807472363 H 0.0 **** 0.06
32671 C 1.4370647005188744 77.87694330845608 113.15677269463463 C 0.0 **** -0.24
32672 H 1.3465357443466246 78.89474117826052 112.77662719122739 H 0.0 **** 0.06
32673 H 0.4549562000042897 77.40352467066651 113.16400399305702 H 0.0 **** 0.06
32674 H 1.8361388884956398 77.90191480945361 114.17082485834099 H 0.0 **** 0.06
32675 H 2.110741279439253 77.30848085746919 112.51518956808212 H 0.0 **** 0.06
32676 C 0.25996889738163986 74.36266358595503 7.359689928071248 C 0.0 **** -0.24
32677 H -0.11919182776705384 75.27684012601134 7.818192993787747 H 0.0 **** 0.06
32678 H -0.0008284173610206835 73.50813848311111 7.984539679155191 H 0.0 **** 0.06
32679 H 1.3439411229546323 74.42643459313553 7.266025492862923 H 0.0 **** 0.06
32680 H -0.18442808101579544 74.24059844837825 6.372453414422068 H 0.0 **** 0.06
32681 C 105.77844219835598 16.584392978004985 92.08295853393852 C 0.0 **** -0.24
32682 H 105.28099243497516 17.1884779065025 92.84066600202846 H 0.0 **** 0.06
32683 H 105.75357172088653 15.53508538881161 92.38059041657894 H 0.0 **** 0.06
32684 H 106.81370740841223 16.908296570179942 91.98146019958824 H 0.0 **** 0.06
32685 H 105.2646269258826 16.70377371969178 91.12842055694438 H 0.0 **** 0.06
32686 C 31.109542860343367 107.50885785425939 107.35773116465347 C 0.0 **** -0.24
32687 H 31.354786310017886 108.23461723285132 108.13324361137163 H 0.0 **** 0.06
32688 H 31.739205601403512 107.68467705246732 106.48481645784278 H 0.0 **** 0.06
32689 H 30.061213655129507 107.61690100111869 107.07823131625807 H 0.0 **** 0.06
32690 H 31.283168827223122 106.50146128764823 107.73472147306495 H 0.0 **** 0.06
32691 C 99.8597961175989 74.96112167255151 8.324699164352495 C 0.0 **** -0.24
32692 H 99.49045338193702 75.91200455323113 8.709851483303481 H 0.0 **** 0.06
32693 H 100.02102973356594 74.27195806749103 9.154747911357902 H 0.0 **** 0.06
32694 H 100.79997074027318 75.12378941922677 7.798129675442652 H 0.0 **** 0.06
32695 H 99.12648103819649 74.53865182405212 7.638468347090736 H 0.0 **** 0.06
32696 C 41.343874537648446 80.1152429629411 89.7655747417702 C 0.0 **** -0.24
32697 H 40.532505471961485 80.1178593430258 89.03664055070215 H 0.0 **** 0.06
32698 H 41.492345487997284 81.12518029345821 90.14674332382589 H 0.0 **** 0.06
32699 H 42.260141759118284 79.76699384982746 89.28791319329281 H 0.0 **** 0.06
32700 H 41.08869193697413 79.4490868867187 90.58949067754628 H 0.0 **** 0.06
32701 C 79.7796974829414 41.27484931440827 88.9833988711517 C 0.0 **** -0.24
32702 H 78.7505036645386 41.178074637669084 88.6362917218876 H 0.0 **** 0.06
32703 H 79.8479210265429 40.93816866049761 90.0177369399733 H 0.0 **** 0.06
32704 H 80.0882435675988 42.31840548429736 88.919270749081 H 0.0 **** 0.06
32705 H 80.43218344116866 40.6635164101736 88.35843100172457 H 0.0 **** 0.06
32706 C 74.64292214004794 1.070071649533233 59.06332712530667 C 0.0 **** -0.24
32707 H 75.2706114194321 1.9618379686974237 59.08319316542486 H 0.0 **** 0.06
32708 H 74.90682843122042 0.42186874831938326 59.89843010418633 H 0.0 **** 0.06
32709 H 74.80035317467213 0.5370460125201788 58.12571702316302 H 0.0 **** 0.06
32710 H 73.59630004262849 1.3606394622404139 59.144555221494784 H 0.0 **** 0.06
32711 C 21.80111458248129 80.44972679857591 93.12399805023514 C 0.0 **** -0.24
32712 H 22.235616827201824 81.03703170295745 92.31482109780933 H 0.0 **** 0.06
32713 H 21.667281471798873 79.4195929502809 92.79353847128544 H 0.0 **** 0.06
32714 H 20.83528315703228 80.87153982941442 93.40123795630299 H 0.0 **** 0.06
32715 H 22.468358038526617 80.47131581261777 93.98581106451073 H 0.0 **** 0.06
32716 C 69.9233796057444 17.315450259938928 71.68838172752322 C 0.0 **** -0.24
32717 H 70.10283424358724 16.35717262994001 71.20060861964623 H 0.0 **** 0.06
32718 H 69.9299012783058 17.179243994477815 72.76990699367872 H 0.0 **** 0.06
32719 H 68.9548485194355 17.705003534012576 71.37674206108096 H 0.0 **** 0.06
32720 H 70.7065143647668 18.018676895711536 71.4049424555987 H 0.0 **** 0.06
32721 C 22.303972351663504 112.98014403967449 70.88672215784658 C 0.0 **** -0.24
32722 H 22.174836372167476 112.68742203920641 69.84435737314789 H 0.0 **** 0.06
32723 H 21.533654411429666 112.50531061063552 71.49429935395264 H 0.0 **** 0.06
32724 H 22.218047414395073 114.06332319071367 70.97254987299513 H 0.0 **** 0.06
32725 H 23.287371633653095 112.66437906258369 71.23343217425597 H 0.0 **** 0.06
32726 C 64.98767026404542 56.53801789691851 116.7029154722932 C 0.0 **** -0.24
32727 H 64.38532170058227 55.66451034525864 116.45158424173879 H 0.0 **** 0.06
32728 H 65.37979559068157 56.98383045979951 115.78779003536663 H 0.0 **** 0.06
32729 H 65.81580799845213 56.2356043591759 117.34381913872346 H 0.0 **** 0.06
32730 H 64.3699308776502 57.267072581043855 117.22626413588624 H 0.0 **** 0.06
32731 C 42.863204754725075 68.24819261857675 100.09266618566659 C 0.0 **** -0.24
32732 H 42.60043902291801 67.48742676897967 100.82809537636416 H 0.0 **** 0.06
32733 H 42.91641608833345 69.22109843476022 100.58046363381862 H 0.0 **** 0.06
32734 H 42.10393052283729 68.27363967783805 99.31076614013432 H 0.0 **** 0.06
32735 H 43.83084900415412 68.0072823314045 99.65258618628576 H 0.0 **** 0.06
32736 C 50.77316012640949 107.2557338382189 9.872734824682965 C 0.0 **** -0.24
32737 H 50.421209707884856 106.70706526446548 10.747073627887886 H 0.0 **** 0.06
32738 H 51.77468649084514 107.64089760833468 10.06382739444328 H 0.0 **** 0.06
32739 H 50.09630770160629 108.0860054398151 9.669879056297702 H 0.0 **** 0.06
32740 H 50.79701343807798 106.5882710529414 9.011500244945793 H 0.0 **** 0.06
32741 C 32.057521199794564 4.763541296547773 96.46473926250371 C 0.0 **** -0.24
32742 H 32.25746331128937 5.408145822075124 97.3212740183123 H 0.0 **** 0.06
32743 H 31.32808707490875 4.003420717962182 96.74539058201054 H 0.0 **** 0.06
32744 H 32.98273612661035 4.280999080757944 96.14896252708576 H 0.0 **** 0.06
32745 H 31.66097384595031 5.362016427980883 95.64440073570697 H 0.0 **** 0.06
32746 C 63.68431568768057 115.76579723382 37.20401639181911 C 0.0 **** -0.24
32747 H 63.71392119577496 115.41888443805838 38.236783344933286 H 0.0 **** 0.06
32748 H 62.68340664726185 115.61478077283252 36.799330454696275 H 0.0 **** 0.06
32749 H 64.40605862864822 115.20357580068652 36.611467864259936 H 0.0 **** 0.06
32750 H 63.93393515113644 116.826446683576 37.17066290899835 H 0.0 **** 0.06
32751 C 7.469324864882196 87.61836361836382 26.1207931136571 C 0.0 **** -0.24
32752 H 6.420296514222713 87.91542584876993 26.10849822779018 H 0.0 **** 0.06
32753 H 7.552234239661175 86.59425852744076 26.484191442428042 H 0.0 **** 0.06
32754 H 8.027467973581082 88.28384416442628 26.778007217115487 H 0.0 **** 0.06
32755 H 7.8755385977986805 87.68015773440084 25.11078989170089 H 0.0 **** 0.06
32756 C 86.63757672745785 47.8870742584366 35.35854414529106 C 0.0 **** -0.24
32757 H 87.52893798397463 48.51278866487553 35.41694996995412 H 0.0 **** 0.06
32758 H 86.45165028638647 47.61581239121614 34.31963900505215 H 0.0 **** 0.06
32759 H 85.78153730662908 48.437177390486625 35.74997313555426 H 0.0 **** 0.06
32760 H 86.789933354912 46.98301171493591 35.948913522742515 H 0.0 **** 0.06
32761 C 72.10691391334342 75.57892011518652 97.7481846185139 C 0.0 **** -0.24
32762 H 73.14097278210173 75.2346748144675 97.74554269216952 H 0.0 **** 0.06
32763 H 71.82216153225158 75.86646745646487 98.76094878485259 H 0.0 **** 0.06
32764 H 71.45590950057564 74.77505423242303 97.40196998869021 H 0.0 **** 0.06
32765 H 72.00780174861197 76.43740927414501 97.08447634896498 H 0.0 **** 0.06
32766 C 10.508071090950892 105.6659832722201 100.51484094134133 C 0.0 **** -0.24
32767 H 10.104896709447729 104.66014373443505 100.62449359846576 H 0.0 **** 0.06
32768 H 9.961729954913295 106.19285827067839 99.7315748591607 H 0.0 **** 0.06
32769 H 11.562629636536741 105.6080354493173 100.2453861392948 H 0.0 **** 0.06
32770 H 10.402590983856555 106.20397687628085 101.45710917149117 H 0.0 **** 0.06
32771 C 116.24781575170238 102.27209043700697 116.9604680289197 C 0.0 **** -0.24
32772 H 115.27853389291022 102.71562239508825 116.73170903716726 H 0.0 **** 0.06
32773 H 116.2089757028561 101.19779835900175 116.77369626686942 H 0.0 **** 0.06
32774 H 116.48955448645495 102.45043885766978 118.00841975226231 H 0.0 **** 0.06
32775 H 117.01199083690943 102.72355092360056 116.32851598859992 H 0.0 **** 0.06
32776 C 118.85964125375823 37.26122388142162 90.78856990006935 C 0.0 **** -0.24
32777 H 119.51584984075488 37.99721312873089 91.25289594380729 H 0.0 **** 0.06
32778 H 118.72641617915545 36.41576853078844 91.46389125179002 H 0.0 **** 0.06
32779 H 119.30618585013585 36.914205708198295 89.85617141023894 H 0.0 **** 0.06
32780 H 117.89190593918889 37.71738268051847 90.58002475134319 H 0.0 **** 0.06
32781 C 91.66233467904704 91.57984465632254 113.17903534848567 C 0.0 **** -0.24
32782 H 91.22002498978796 91.33453974483388 114.14366330993288 H 0.0 **** 0.06
32783 H 91.20785767349125 90.96275678256211 112.40332545844386 H 0.0 **** 0.06
32784 H 92.73533013305502 91.38912350091707 113.2121986753865 H 0.0 **** 0.06
32785 H 91.48751979911836 92.6321901729184 112.95538330768227 H 0.0 **** 0.06
32786 C 82.73350409873714 36.854350335067636 37.427612388975334 C 0.0 **** -0.24
32787 H 83.3745086309979 37.686412960464565 37.718119733800386 H 0.0 **** 0.06
32788 H 82.6358400926623 36.83336808577576 36.342264496395345 H 0.0 **** 0.06
32789 H 81.74983875189778 36.979666450502066 37.87964214280268 H 0.0 **** 0.06
32790 H 83.17506792032671 35.919379448240136 37.77162018778024 H 0.0 **** 0.06
32791 C 89.74735177937953 63.247297255187846 99.8210496535454 C 0.0 **** -0.24
32792 H 90.11809405926829 63.859514469691135 98.99967352529268 H 0.0 **** 0.06
32793 H 89.2882139646473 63.889220668687926 100.5733942647098 H 0.0 **** 0.06
32794 H 90.57702307353793 62.69924576296751 100.26846078545339 H 0.0 **** 0.06
32795 H 89.00635157566376 62.54310429988993 99.44324345211305 H 0.0 **** 0.06
32796 C 73.63459020890767 32.644963916469976 66.89046525661229 C 0.0 **** -0.24
32797 H 73.94195617122699 32.345712929387105 67.89288314646873 H 0.0 **** 0.06
32798 H 74.51669799740603 32.772106933091266 66.26305784407484 H 0.0 **** 0.06
32799 H 73.0874086536881 33.58613714678427 66.94383999887654 H 0.0 **** 0.06
32800 H 72.99242046429885 31.875203918106365 66.46278884075025 H 0.0 **** 0.06
32801 C 25.894588405234117 59.145924764512415 64.12983158010104 C 0.0 **** -0.24
32802 H 25.578676220360904 58.494925340546416 64.94479280050524 H 0.0 **** 0.06
32803 H 25.188363800259452 59.06252887177098 63.30313722189669 H 0.0 **** 0.06
32804 H 26.88678148333861 58.84882133347497 63.790936338283245 H 0.0 **** 0.06
32805 H 25.924655221697293 60.17856250154378 64.47916083527986 H 0.0 **** 0.06
32806 C 13.404506901847157 61.13945831772498 45.19404377856702 C 0.0 **** -0.24
32807 H 13.072594668726168 60.12030655903033 45.39304767591179 H 0.0 **** 0.06
32808 H 14.492976843484684 61.16650624895748 45.15927190621349 H 0.0 **** 0.06
32809 H 13.050044959603753 61.79854758713969 45.987558573424565 H 0.0 **** 0.06
32810 H 13.000394012030455 61.47279922840752 44.23849360015308 H 0.0 **** 0.06
32811 C 8.807934802896426 47.27634911600376 17.15429059887153 C 0.0 **** -0.24
32812 H 9.519161902546074 47.44507292909709 17.961956229527715 H 0.0 **** 0.06
32813 H 8.90328363604364 46.251542683381345 16.793333491794 H 0.0 **** 0.06
32814 H 9.012786280624326 47.96929661523163 16.33830579696366 H 0.0 **** 0.06
32815 H 7.79521678290584 47.439366458847154 17.52300068571936 H 0.0 **** 0.06
32816 C 5.300270186523363 58.391116625547255 106.65373699217116 C 0.0 **** -0.24
32817 H 4.233374395886187 58.334791126938256 106.8691885298013 H 0.0 **** 0.06
32818 H 5.58693899962131 57.5531668176919 106.01851131134282 H 0.0 **** 0.06
32819 H 5.862351862924385 58.349268990887936 107.58681123689684 H 0.0 **** 0.06
32820 H 5.518345390974616 59.32813070869875 106.13998854825348 H 0.0 **** 0.06
32821 C 65.77321634040925 115.54911532200178 15.946419255204546 C 0.0 **** -0.24
32822 H 66.17671006263765 115.70290166840235 16.947407349266143 H 0.0 **** 0.06
32823 H 66.48529849648875 115.91838335622312 15.207514141449906 H 0.0 **** 0.06
32824 H 64.83275181546654 116.0903489733967 15.847464072053725 H 0.0 **** 0.06
32825 H 65.60028286522808 114.4852863076732 15.783506962502088 H 0.0 **** 0.06
32826 C 83.7535013777144 25.34395720510844 117.964267207816 C 0.0 **** -0.24
32827 H 82.73273985761872 25.254845748613377 118.33573406200138 H 0.0 **** 0.06
32828 H 83.73593317486498 25.729984968517414 116.94421495687 H 0.0 **** 0.06
32829 H 84.22953719807683 24.363524933773505 117.97332362762366 H 0.0 **** 0.06
32830 H 84.31454839654 26.02651037620862 118.60220917414806 H 0.0 **** 0.06
32831 C 107.31705854417152 77.20477285472577 58.69976349022454 C 0.0 **** -0.24
32832 H 107.58739155369813 77.96671213562442 59.431249785793625 H 0.0 **** 0.06
32833 H 107.02722074016211 77.68542933646518 57.765008439847065 H 0.0 **** 0.06
32834 H 106.48184877534518 76.61667344920167 59.080329266550734 H 0.0 **** 0.06
32835 H 108.17068696905329 76.55105538743663 58.522928800918635 H 0.0 **** 0.06
32836 C 33.306893622866646 11.609016385800743 49.15809158782781 C 0.0 **** -0.24
32837 H 33.95756150981773 11.293295637475808 48.34201173035544 H 0.0 **** 0.06
32838 H 32.28357033740988 11.297061591089772 48.94907188977811 H 0.0 **** 0.06
32839 H 33.34361334866536 12.694082734176021 49.252543816058676 H 0.0 **** 0.06
32840 H 33.644159442738754 11.152031508327013 50.088481916668314 H 0.0 **** 0.06
32841 C 19.34899862920672 68.21973890208082 45.229056058898436 C 0.0 **** -0.24
32842 H 20.074320288338868 68.89572897433078 45.68154635118694 H 0.0 **** 0.06
32843 H 19.28588985846713 68.41803512112932 44.15886005240995 H 0.0 **** 0.06
32844 H 18.371365346816987 68.37703814942486 45.68588944846775 H 0.0 **** 0.06
32845 H 19.664340604131297 67.18898802143246 45.39047359453403 H 0.0 **** 0.06
32846 C 53.605409638763774 84.34313094095992 114.64070672346091 C 0.0 **** -0.24
32847 H 53.524761062850985 83.81114534704068 115.58945895377835 H 0.0 **** 0.06
32848 H 52.60718139938808 84.51959757214377 114.23834549156467 H 0.0 **** 0.06
32849 H 54.181707415226924 83.7434627006449 113.93651398372151 H 0.0 **** 0.06
32850 H 54.10690458137981 85.29750121500871 114.80184884255311 H 0.0 **** 0.06
32851 C 9.816685507929662 20.459920640575664 55.934127172953595 C 0.0 **** -0.24
32852 H 10.445379683978047 19.679617289004064 56.36230218896719 H 0.0 **** 0.06
32853 H 9.17329232715943 20.87538719458149 56.70964011284235 H 0.0 **** 0.06
32854 H 9.201201565130333 20.03536179260834 55.139838195886 H 0.0 **** 0.06
32855 H 10.446148559101175 21.248392584608407 55.522576711808085 H 0.0 **** 0.06
32856 C 2.9679667424221154 89.27296226210154 86.45218048818148 C 0.0 **** -0.24
32857 H 2.5851640732584364 90.11714901349842 87.02601185372652 H 0.0 **** 0.06
32858 H 2.133313472546787 88.6598620905047 86.10905253086622 H 0.0 **** 0.06
32859 H 3.6247666764379147 88.67326668771847 87.08240159196214 H 0.0 **** 0.06
32860 H 3.526016927121809 89.64225662312504 85.59257525639492 H 0.0 **** 0.06
32861 C 62.74542847415456 83.21473816163439 56.07023259690606 C 0.0 **** -0.24
32862 H 63.71979890683337 82.8659394258346 55.72877067396242 H 0.0 **** 0.06
32863 H 62.43164216094967 84.06601435312697 55.466824348832624 H 0.0 **** 0.06
32864 H 62.81308753410756 83.51408226353723 57.11576733287048 H 0.0 **** 0.06
32865 H 62.017043448140136 82.40992010989584 55.96960583967894 H 0.0 **** 0.06
32866 C 31.702545654777566 107.73006108806516 48.03854338186423 C 0.0 **** -0.24
32867 H 32.36231404394999 108.37958231659451 48.61495165091489 H 0.0 **** 0.06
32868 H 32.21008569693964 106.78818527418264 47.83111964768716 H 0.0 **** 0.06
32869 H 31.442182478034056 108.21827161954639 47.09875131162707 H 0.0 **** 0.06
32870 H 30.794815409882517 107.53560115539321 48.610010547675614 H 0.0 **** 0.06
32871 C 51.2377040308015 66.82032729342819 62.28027878904181 C 0.0 **** -0.24
32872 H 51.003438398741075 67.28311996721456 63.240193506069566 H 0.0 **** 0.06
32873 H 52.09787829370203 67.32238445989722 61.836339082130515 H 0.0 **** 0.06
32874 H 50.37976310078214 66.91266044013636 61.61460056558635 H 0.0 **** 0.06
32875 H 51.46925054508014 65.76700688963203 62.43239978939197 H 0.0 **** 0.06
32876 C 29.07234598044016 10.072271777371597 12.420710658702404 C 0.0 **** -0.24
32877 H 28.396813742936956 10.747864697809447 12.945654450761026 H 0.0 **** 0.06
32878 H 28.84455436089229 9.0433375130076 12.698359361876243 H 0.0 **** 0.06
32879 H 30.102062091755556 10.303651550677934 12.694693774266568 H 0.0 **** 0.06
32880 H 28.946301590422593 10.196065721568232 11.344857288706237 H 0.0 **** 0.06
32881 C 34.32956204917397 103.95091295840336 75.86588425477547 C 0.0 **** -0.24
32882 H 34.77838724161134 104.56878137406218 76.64375194750542 H 0.0 **** 0.06
32883 H 33.242925043111995 104.01050842250956 75.938623899759 H 0.0 **** 0.06
32884 H 34.646922180404914 102.91606204011731 75.9956406218877 H 0.0 **** 0.06
32885 H 34.64898019003391 104.30915081009297 74.88731169529325 H 0.0 **** 0.06
32886 C 101.70493041074207 80.49314175613509 55.90469249280529 C 0.0 **** -0.24
32887 H 101.68995048558935 81.06413269842577 56.833814442844364 H 0.0 **** 0.06
32888 H 101.47190091748396 81.15316105797703 55.06932531244704 H 0.0 **** 0.06
32889 H 100.96349656860318 79.69630341000735 55.95707605037317 H 0.0 **** 0.06
32890 H 102.694446316421 80.05955002768138 55.761496724477134 H 0.0 **** 0.06
32891 C 81.58077069318784 29.585769276696567 40.78542960352689 C 0.0 **** -0.24
32892 H 81.16860740158648 28.829657357799675 41.45275762375786 H 0.0 **** 0.06
32893 H 80.76669815611416 30.11729373994183 40.291862726803345 H 0.0 **** 0.06
32894 H 82.20925141305301 29.105063075483883 40.03520753722081 H 0.0 **** 0.06
32895 H 82.17818853530434 30.291974611570197 41.36165567968797 H 0.0 **** 0.06
32896 C 29.823398938712785 46.476764526342016 101.59778439523967 C 0.0 **** -0.24
32897 H 30.718196874586134 47.049297314241585 101.35204983662419 H 0.0 **** 0.06
32898 H 29.975610250182662 45.953544433630135 102.5427262571352 H 0.0 **** 0.06
32899 H 29.627381794495925 45.75150729253356 100.8076591967544 H 0.0 **** 0.06
32900 H 28.974451693335908 47.15327380731036 101.68992702479028 H 0.0 **** 0.06
32901 C 99.57639777496223 44.790718746409 18.334016022993268 C 0.0 **** -0.24
32902 H 99.1869057321806 45.50860247505571 19.05657296282088 H 0.0 **** 0.06
32903 H 100.57620868184716 44.47891511947523 18.633826192155098 H 0.0 **** 0.06
32904 H 99.61987256336687 45.25561679610635 17.34832925581385 H 0.0 **** 0.06
32905 H 98.91979900172151 43.92167301274549 18.296704997406394 H 0.0 **** 0.06
32906 C 91.67824040155111 54.11884937672187 1.4642909577175907 C 0.0 **** -0.24
32907 H 91.43702874651237 53.28200624124571 2.119789300289373 H 0.0 **** 0.06
32908 H 92.01323392829624 53.73760090145436 0.49872034326974024 H 0.0 **** 0.06
32909 H 92.47051500934967 54.71648535747775 1.9136089638502227 H 0.0 **** 0.06
32910 H 90.7916037833102 54.73734265998604 1.3228513316204076 H 0.0 **** 0.06
32911 C 16.951553620129815 23.231614042140222 44.284573769869525 C 0.0 **** -0.24
32912 H 16.74930693763619 23.397756930608864 45.34243593415843 H 0.0 **** 0.06
32913 H 17.719644444431722 23.92823584697919 43.948619730835816 H 0.0 **** 0.06
32914 H 16.039536812321472 23.391624000761 43.71003944760386 H 0.0 **** 0.06
32915 H 17.299071021199524 22.209050533887932 44.13758366344871 H 0.0 **** 0.06
32916 C 35.89619552015935 65.61320025242384 95.92140278411941 C 0.0 **** -0.24
32917 H 36.3110108815996 65.64105621356589 94.9138017564986 H 0.0 **** 0.06
32918 H 35.31231783780264 66.51606286422248 96.10014707315639 H 0.0 **** 0.06
32919 H 36.70737010080233 65.55533219582742 96.64726342104183 H 0.0 **** 0.06
32920 H 35.25345631449218 64.73828511800747 96.0249858983835 H 0.0 **** 0.06
32921 C 76.45987629593503 1.8734484532948272 43.36976388513925 C 0.0 **** -0.24
32922 H 76.47808354887744 1.479241565518521 42.35373288576224 H 0.0 **** 0.06
32923 H 75.7010190115684 1.346793583502631 43.94966294694563 H 0.0 **** 0.06
32924 H 76.22445903873472 2.9370178085546286 43.341347865820524 H 0.0 **** 0.06
32925 H 77.43654989593875 1.7297752481336488 43.83238823044709 H 0.0 **** 0.06
32926 C 82.86228338835286 29.717188133708845 101.87501585286842 C 0.0 **** -0.24
32927 H 82.71179509749612 30.376549669357075 101.02013912746096 H 0.0 **** 0.06
32928 H 81.89858206865625 29.335777958363053 102.21315434358951 H 0.0 **** 0.06
32929 H 83.3369830183156 30.273684157059932 102.68350026213733 H 0.0 **** 0.06
32930 H 83.50070615307641 28.884097282211428 101.58312460424295 H 0.0 **** 0.06
32931 C 60.694878748332854 23.17232164897993 107.10309943799444 C 0.0 **** -0.24
32932 H 60.72115578318642 23.72875204429795 108.04050348974323 H 0.0 **** 0.06
32933 H 60.18050670959616 22.222785649122073 107.25929004519881 H 0.0 **** 0.06
32934 H 61.71359058986636 22.98211214319818 106.76497356261794 H 0.0 **** 0.06
32935 H 60.163362521308386 23.753770621812976 106.35022088100405 H 0.0 **** 0.06
32936 C 103.3727131759978 17.497031790339264 83.70706497477212 C 0.0 **** -0.24
32937 H 103.74605055241568 17.132994583818316 82.74927963742226 H 0.0 **** 0.06
32938 H 102.39818647400446 17.96373630195299 83.56299837556395 H 0.0 **** 0.06
32939 H 104.06992263854158 18.2284380562173 84.11411697323862 H 0.0 **** 0.06
32940 H 103.2770586507254 16.660513893000058 84.40016428835565 H 0.0 **** 0.06
32941 C 103.64096902325193 56.0234318011359 9.458741823410008 C 0.0 **** -0.24
32942 H 104.26183072619156 55.890511323164844 8.571675549630413 H 0.0 **** 0.06
32943 H 102.72454183371218 56.547192796261186 9.185349719235973 H 0.0 **** 0.06
32944 H 104.1869444124236 56.608130320168584 10.199040465641815 H 0.0 **** 0.06
32945 H 103.39197522549782 55.04804036581555 9.877177275534962 H 0.0 **** 0.06
32946 C 24.53802361205527 77.39926307334133 32.69189778143246 C 0.0 **** -0.24
32947 H 24.85054522907774 78.09008633597583 33.473916279751535 H 0.0 **** 0.06
32948 H 25.34516037558825 76.6970511643963 32.483762640811364 H 0.0 **** 0.06
32949 H 24.300420634522425 77.95815793103998 31.78703596738174 H 0.0 **** 0.06
32950 H 23.654967179787093 76.85136254052622 33.02195832265929 H 0.0 **** 0.06
32951 C 61.00036435839209 52.92693017913858 68.75973213011147 C 0.0 **** -0.24
32952 H 61.48002933764121 52.01383935736565 68.40884018101372 H 0.0 **** 0.06
32953 H 60.2139492866487 52.67447916011912 69.47153858613945 H 0.0 **** 0.06
32954 H 60.56541206374979 53.458244233313536 67.91223431785338 H 0.0 **** 0.06
32955 H 61.74031240945678 53.5628476666758 69.24605549871865 H 0.0 **** 0.06
32956 C 10.129200324694438 87.56345578179491 55.48929967101037 C 0.0 **** -0.24
32957 H 10.591079029859316 87.22077721748042 54.56323539283164 H 0.0 **** 0.06
32958 H 10.055421111086389 88.65033252214945 55.478572352792355 H 0.0 **** 0.06
32959 H 10.737497606826196 87.2481850624664 56.33686638876418 H 0.0 **** 0.06
32960 H 9.132003370918312 87.13221436676625 55.578449316108674 H 0.0 **** 0.06
32961 C 101.7058830095406 80.56081126366931 103.30084267713727 C 0.0 **** -0.24
32962 H 100.64309017605882 80.32267702778088 103.27429121692163 H 0.0 **** 0.06
32963 H 101.84744567567179 81.53823142324956 103.76206649841086 H 0.0 **** 0.06
32964 H 102.09924890242735 80.57895215488898 102.28360039833078 H 0.0 **** 0.06
32965 H 102.23327325592692 79.80363852881251 103.88029629478933 H 0.0 **** 0.06
32966 C 29.176564971104128 48.28954144808057 26.833208632481508 C 0.0 **** -0.24
32967 H 30.12456972374755 48.207811776863934 26.302466925875223 H 0.0 **** 0.06
32968 H 28.49371918572598 47.51765409251573 26.477687697444814 H 0.0 **** 0.06
32969 H 28.74187501750368 49.27250263002935 26.649245099628224 H 0.0 **** 0.06
32970 H 29.345529340147024 48.16177086898466 27.901950523991673 H 0.0 **** 0.06
32971 C 90.72467779142744 63.14024038249847 6.663092444548454 C 0.0 **** -0.24
32972 H 90.02950307024511 62.61843146106717 7.3199988806626095 H 0.0 **** 0.06
32973 H 90.63428962826598 64.21559745929028 6.8181786675484375 H 0.0 **** 0.06
32974 H 90.49167401936776 62.90210844397681 5.624940225629814 H 0.0 **** 0.06
32975 H 91.7435899000358 62.82520388732832 6.888393789469362 H 0.0 **** 0.06
32976 C 63.5700624183894 89.58173962621584 104.06869116213954 C 0.0 **** -0.24
32977 H 64.21412639474369 89.2694804239245 104.89055205989615 H 0.0 **** 0.06
32978 H 63.915425726666996 90.54119878968652 103.68170930803248 H 0.0 **** 0.06
32979 H 62.54513912008781 89.68145080248007 104.427509424091 H 0.0 **** 0.06
32980 H 63.606326790571785 88.83543090513604 103.27477757367052 H 0.0 **** 0.06
32981 C 72.84155446235349 97.77046026989103 37.16508674003833 C 0.0 **** -0.24
32982 H 73.67653178744777 98.091472824819 37.78794658024211 H 0.0 **** 0.06
32983 H 72.66900270753612 98.50728657517885 36.380112535363395 H 0.0 **** 0.06
32984 H 71.94527786437075 97.67736007907115 37.7795778059118 H 0.0 **** 0.06
32985 H 73.07417919680518 96.80557742716701 36.71457436470678 H 0.0 **** 0.06
32986 C 11.723512516202241 19.311922774605165 9.315183185475334 C 0.0 **** -0.24
32987 H 10.769397561951571 18.82531060877173 9.110212738602236 H 0.0 **** 0.06
32988 H 11.942313900910431 20.027999159508568 8.523122500786176 H 0.0 **** 0.06
32989 H 12.511931290402327 18.561637252477283 9.356291954764771 H 0.0 **** 0.06
32990 H 11.666679345041686 19.832756289422974 10.271426384844283 H 0.0 **** 0.06
32991 C 6.288369602545393 69.72228151165507 102.23113038755727 C 0.0 **** -0.24
32992 H 5.4821089755600845 69.47646792624005 102.92270908186276 H 0.0 **** 0.06
32993 H 7.157976886776048 69.1031811174314 102.4527098798786 H 0.0 **** 0.06
32994 H 6.55257990779298 70.77390713186765 102.34196825670807 H 0.0 **** 0.06
32995 H 5.959131121066974 69.53623667291185 101.20878606437583 H 0.0 **** 0.06
32996 C 90.92607690637988 75.42193343545205 52.39959070939851 C 0.0 **** -0.24
32997 H 91.68318865131377 75.91267216951184 51.787042803157334 H 0.0 **** 0.06
32998 H 91.00251490736395 74.34157705753029 52.273214487313666 H 0.0 **** 0.06
32999 H 89.93601101411906 75.75468972516342 52.09046734102013 H 0.0 **** 0.06
33000 H 91.08568168463356 75.67669286397535 53.44743064552284 H 0.0 **** 0.06
33001 C 50.87816905888383 112.3222804579734 52.06538505347294 C 0.0 **** -0.24
33002 H 50.553545160402166 112.26450165393116 51.0267419635733 H 0.0 **** 0.06
33003 H 50.262009271506514 111.66116645693347 52.67607487233431 H 0.0 **** 0.06
33004 H 50.77506268665201 113.34772602999247 52.42132053693612 H 0.0 **** 0.06
33005 H 51.92135020829619 112.01679354467447 52.13680157436457 H 0.0 **** 0.06
33006 C 25.077627223405273 77.1153035311504 56.62834786627485 C 0.0 **** -0.24
33007 H 24.829434067240527 77.70535847254769 55.745381293719106 H 0.0 **** 0.06
33008 H 24.281844669788768 77.21480826462954 57.36695705958368 H 0.0 **** 0.06
33009 H 26.015186602626443 77.47264847453977 57.05308485929589 H 0.0 **** 0.06
33010 H 25.18240759087979 76.06730711368795 56.34570283282176 H 0.0 **** 0.06
33011 C 1.1375246248146595 18.715755848060095 11.289517823785602 C 0.0 **** -0.24
33012 H 1.947594292389681 18.28048533934274 11.874811165011891 H 0.0 **** 0.06
33013 H 1.2631799994238122 19.79734851104937 11.243565822679557 H 0.0 **** 0.06
33014 H 0.18246877294285468 18.478995303365142 11.759462914348916 H 0.0 **** 0.06
33015 H 1.1585622629458499 18.303738218184865 10.279996386754036 H 0.0 **** 0.06
33016 C 78.5523970643861 98.66400644963929 26.213045987765042 C 0.0 **** -0.24
33017 H 78.49191023643249 97.58358391463946 26.34061952973778 H 0.0 **** 0.06
33018 H 77.85795505267626 98.97686423140362 25.433345489080807 H 0.0 **** 0.06
33019 H 79.5679178383487 98.9401907893313 25.927761240767154 H 0.0 **** 0.06
33020 H 78.2923279893613 99.15560754242955 27.15128108530928 H 0.0 **** 0.06
33021 C 12.22492835308367 43.04565719607763 1.751622439240009 C 0.0 **** -0.24
33022 H 11.672308508819043 43.00880117364844 0.8128527621405084 H 0.0 **** 0.06
33023 H 12.622999901296442 42.05592565128425 1.978704293206306 H 0.0 **** 0.06
33024 H 11.556721875492677 43.360942421026294 2.5535338745357024 H 0.0 **** 0.06
33025 H 13.046295453819589 43.75655544559552 1.6631050995466978 H 0.0 **** 0.06
33026 C 6.249366770206393 45.7956734516639 12.52114322843541 C 0.0 **** -0.24
33027 H 5.283487686561216 46.290555309198226 12.621308582193311 H 0.0 **** 0.06
33028 H 6.472861452946518 45.64882651153991 11.463747957122436 H 0.0 **** 0.06
33029 H 6.215972939196092 44.829035925786656 13.023310819823873 H 0.0 **** 0.06
33030 H 7.0236292621503935 46.41433266210106 12.97309106728381 H 0.0 **** 0.06
33031 C 99.38181378654437 82.4010654401751 59.65516294869292 C 0.0 **** -0.24
33032 H 100.23736150809751 82.59505584106415 60.30205195556965 H 0.0 **** 0.06
33033 H 98.4736901519453 82.35875269978874 60.25659097505917 H 0.0 **** 0.06
33034 H 99.52266050092447 81.44801570111747 59.14321461937874 H 0.0 **** 0.06
33035 H 99.29396309897587 83.19885935020574 58.91893907464669 H 0.0 **** 0.06
33036 C 12.882396578459051 55.8006768466528 72.75138619964122 C 0.0 **** -0.24
33037 H 13.793572565615648 56.37774133709902 72.59034730206477 H 0.0 **** 0.06
33038 H 13.128796020312151 54.867533324228965 73.2594276714699 H 0.0 **** 0.06
33039 H 12.418584349060296 55.58020568469363 71.79054064256673 H 0.0 **** 0.06
33040 H 12.191082112970577 56.37718467622023 73.36527669886095 H 0.0 **** 0.06
33041 C 53.152191710075115 35.42814663918031 117.62069569423204 C 0.0 **** -0.24
33042 H 53.8876896611889 34.853129970592335 118.18175991868725 H 0.0 **** 0.06
33043 H 53.65661065089026 36.00318562147345 116.84351146253005 H 0.0 **** 0.06
33044 H 52.630851602942 36.10766352076277 118.29565934423675 H 0.0 **** 0.06
33045 H 52.43317557208232 34.74995009316173 117.16191822416789 H 0.0 **** 0.06
33046 C 33.48916662349151 41.49648313081863 59.739680585921526 C 0.0 **** -0.24
33047 H 32.793079574068855 40.9631702850987 59.09237247571466 H 0.0 **** 0.06
33048 H 34.493478743572524 41.43441988088651 59.3206723695911 H 0.0 **** 0.06
33049 H 33.47949422740302 41.0458219426869 60.73234293270618 H 0.0 **** 0.06
33050 H 33.18884911377668 42.54185361713283 59.81213413623495 H 0.0 **** 0.06
33051 C 46.74278312565269 22.52565736145337 98.15926546378773 C 0.0 **** -0.24
33052 H 45.68411382118569 22.59524951785056 98.41032489320764 H 0.0 **** 0.06
33053 H 46.85083918528096 22.311799316160716 97.09580121465271 H 0.0 **** 0.06
33054 H 47.20248629694237 21.726255930374663 98.73989088519073 H 0.0 **** 0.06
33055 H 47.232569553243934 23.47125695196405 98.39098127650394 H 0.0 **** 0.06
33056 C 45.49697833417582 78.5048427596684 60.12757824332775 C 0.0 **** -0.24
33057 H 45.10350166557049 79.46959517349529 60.44748830793904 H 0.0 **** 0.06
33058 H 46.33766875142521 78.22647639133828 60.76421192241543 H 0.0 **** 0.06
33059 H 45.83232393789339 78.57459328517695 59.0928421641683 H 0.0 **** 0.06
33060 H 44.715086344860765 77.7493025388253 60.20532442678822 H 0.0 **** 0.06
33061 C 55.02894828921643 31.143641842353702 4.118476322078186 C 0.0 **** -0.24
33062 H 55.860925290797525 31.13147856235031 3.413472799725401 H 0.0 **** 0.06
33063 H 54.35004642077928 30.320205006721665 3.8921740442143786 H 0.0 **** 0.06
33064 H 54.49516706831287 32.0896468368457 4.033178781043844 H 0.0 **** 0.06
33065 H 55.41094563055492 31.030803663049824 5.132547365372096 H 0.0 **** 0.06
33066 C 82.52335281537157 68.40546791954799 107.96915270028467 C 0.0 **** -0.24
33067 H 81.9173965602075 68.61180397865303 108.85251510210452 H 0.0 **** 0.06
33068 H 83.52317027216449 68.81611843086174 108.11146856191942 H 0.0 **** 0.06
33069 H 82.06085481738464 68.86614145273111 107.09644940281157 H 0.0 **** 0.06
33070 H 82.59044493218073 67.32810685608217 107.81873215539471 H 0.0 **** 0.06
33071 C 88.52074859182943 71.89667116908362 44.43520822144876 C 0.0 **** -0.24
33072 H 88.34990054708848 71.09589998902683 45.15497766703953 H 0.0 **** 0.06
33073 H 88.80850970583913 71.46614313553758 43.4762745949123 H 0.0 **** 0.06
33074 H 89.31782938204063 72.54522073809326 44.79644103071985 H 0.0 **** 0.06
33075 H 87.6063441883455 72.47684263727561 44.31422813734855 H 0.0 **** 0.06
33076 C 42.82178988698354 70.00630408069605 65.91992205992705 C 0.0 **** -0.24
33077 H 42.30703226063423 70.0159824402622 66.88067930602455 H 0.0 **** 0.06
33078 H 42.282728459513606 70.6372166978951 65.21307509916483 H 0.0 **** 0.06
33079 H 42.86033458094332 68.98524072609814 65.54020833926842 H 0.0 **** 0.06
33080 H 43.83529789924029 70.38497447386521 66.04763165710148 H 0.0 **** 0.06
33081 C 102.35470415378242 20.25488917568228 79.21890685436287 C 0.0 **** -0.24
33082 H 101.74585641779191 21.110234408056442 78.9253501144502 H 0.0 **** 0.06
33083 H 102.95257453528137 19.925120370425617 78.36790612246924 H 0.0 **** 0.06
33084 H 101.70589521845062 19.441425109227822 79.54343842617084 H 0.0 **** 0.06
33085 H 103.01474649505249 20.541489027585143 80.0371226897293 H 0.0 **** 0.06
33086 C 79.74561573580229 1.018654169316335 73.34032942572821 C 0.0 **** -0.24
33087 H 79.9950288961438 1.2782098227114034 74.3698572735828 H 0.0 **** 0.06
33088 H 80.3403364316068 1.6268961213781665 72.65872866394923 H 0.0 **** 0.06
33089 H 78.6859276079959 1.2054323805174363 73.16576266969304 H 0.0 **** 0.06
33090 H 79.96192838502367 -0.035629749833844926 73.16967836270837 H 0.0 **** 0.06
33091 C 59.13293670440024 59.62927340974971 50.7693859209057 C 0.0 **** -0.24
33092 H 58.05505209177517 59.59269136158577 50.92367791384939 H 0.0 **** 0.06
33093 H 59.63268734301016 59.06891553399553 51.560096342350434 H 0.0 **** 0.06
33094 H 59.46791207251556 60.6663936826513 50.790064905952086 H 0.0 **** 0.06
33095 H 59.376104266893975 59.18942738882544 49.80149354039459 H 0.0 **** 0.06
33096 C 104.66572653765411 105.92803523032188 67.92261510032358 C 0.0 **** -0.24
33097 H 103.80106085706677 105.71002342447952 67.29576289800491 H 0.0 **** 0.06
33098 H 105.39477309328507 106.50089213934336 67.34962850012812 H 0.0 **** 0.06
33099 H 105.11729477060737 104.99381502271856 68.25632800175879 H 0.0 **** 0.06
33100 H 104.34888217652122 106.50789749664037 68.79014149088351 H 0.0 **** 0.06
33101 C 79.49538167195772 35.56488456991559 80.08467708017886 C 0.0 **** -0.24
33102 H 79.56104525311355 36.29966331962632 80.88812163201726 H 0.0 **** 0.06
33103 H 80.48733484633624 35.165765423065835 79.87588219740087 H 0.0 **** 0.06
33104 H 79.09685148786133 36.04123906652485 79.18878273896908 H 0.0 **** 0.06
33105 H 78.83290498662689 34.75404834077301 80.38954408193777 H 0.0 **** 0.06
33106 C 71.3582322526999 105.18301852437816 45.455459492311675 C 0.0 **** -0.24
33107 H 70.67376862322433 105.21155570494795 46.30318511370599 H 0.0 **** 0.06
33108 H 71.88539052551977 104.22843563958102 45.44701528227344 H 0.0 **** 0.06
33109 H 72.07838181958815 105.99542080740719 45.54270392535179 H 0.0 **** 0.06
33110 H 70.79450524462024 105.29437736332807 44.52897491849781 H 0.0 **** 0.06
33111 C 16.01155294957883 8.473146997148916 47.12320612660926 C 0.0 **** -0.24
33112 H 15.586249206710576 9.244833710573147 46.4820611557372 H 0.0 **** 0.06
33113 H 16.815535507458236 7.96280267042161 46.59293517739536 H 0.0 **** 0.06
33114 H 15.23697076274031 7.7532511414778185 47.38769046746256 H 0.0 **** 0.06
33115 H 16.40732198351513 8.930334606942097 48.02979638613073 H 0.0 **** 0.06
33116 C 21.48436063273789 93.80105053564267 30.64943555704943 C 0.0 **** -0.24
33117 H 20.684551721376152 93.75800278543647 29.909103701944872 H 0.0 **** 0.06
33118 H 22.414868543950263 94.09240980500141 30.161900541411853 H 0.0 **** 0.06
33119 H 21.605964979451727 92.82105002514211 31.110881060398924 H 0.0 **** 0.06
33120 H 21.23031749913997 94.5344207074948 31.415473356272997 H 0.0 **** 0.06
33121 C 93.745785017647 58.54689754959558 90.1804247829478 C 0.0 **** -0.24
33122 H 94.35142046378274 59.106974515101776 90.89194708674421 H 0.0 **** 0.06
33123 H 94.07265901527234 57.50732128780499 90.16473600396324 H 0.0 **** 0.06
33124 H 93.86006485853264 58.97983073093351 89.18686777854901 H 0.0 **** 0.06
33125 H 92.69851684020827 58.594673395448375 90.47929167344222 H 0.0 **** 0.06
33126 C 1.3955816943332024 63.71047745013784 1.9147997575165476 C 0.0 **** -0.24
33127 H 1.4496521934589168 62.88778161144034 1.2015210380082095 H 0.0 **** 0.06
33128 H 1.9028356336718844 63.426121905895776 2.8363087863746586 H 0.0 **** 0.06
33129 H 0.35021956845383784 63.93530715858366 2.1289521821494475 H 0.0 **** 0.06
33130 H 1.8769792245011843 64.59193954285112 1.4898766642973698 H 0.0 **** 0.06
33131 C 18.92150657430784 108.76584681720257 71.12495672481575 C 0.0 **** -0.24
33132 H 19.235993193259503 107.780617667928 70.77822720700439 H 0.0 **** 0.06
33133 H 19.780094313403595 109.43639937828118 71.13958079344641 H 0.0 **** 0.06
33134 H 18.508363505508385 108.6812953996725 72.13025242877347 H 0.0 **** 0.06
33135 H 18.161844164026718 109.16192656296724 70.45163705249863 H 0.0 **** 0.06
33136 C 28.9725354585608 117.38927334683325 63.05608292511011 C 0.0 **** -0.24
33137 H 28.65175465534503 117.8256136967031 62.109737116668704 H 0.0 **** 0.06
33138 H 28.29561774269817 117.70678824313546 63.849867735892026 H 0.0 **** 0.06
33139 H 29.984474647921076 117.72344523086645 63.28496454687399 H 0.0 **** 0.06
33140 H 28.95682500233667 116.30233768443458 62.97760617119145 H 0.0 **** 0.06
33141 C 102.77412677482914 70.23053647790351 25.960167990120368 C 0.0 **** -0.24
33142 H 102.37509069455484 69.23703915654752 25.75314164327152 H 0.0 **** 0.06
33143 H 103.66150934758087 70.39976579824324 25.350098989285293 H 0.0 **** 0.06
33144 H 103.03784600145934 70.30291813613499 27.01482934592812 H 0.0 **** 0.06
33145 H 102.02020899737752 70.98126728800452 25.72149068750062 H 0.0 **** 0.06
33146 C 19.158185491740227 32.410679280496595 78.72322376836547 C 0.0 **** -0.24
33147 H 18.383046751903265 31.647251718927578 78.79411026684653 H 0.0 **** 0.06
33148 H 19.327763582712436 32.848713432671616 79.70686238396237 H 0.0 **** 0.06
33149 H 18.840176450271713 33.18786570173074 78.02877863415344 H 0.0 **** 0.06
33150 H 20.082116687597164 31.956701189454748 78.36283551032943 H 0.0 **** 0.06
33151 C 100.72951106485496 91.34028773564063 42.51266312190262 C 0.0 **** -0.24
33152 H 99.90237746939195 91.95543331181025 42.15905108178782 H 0.0 **** 0.06
33153 H 100.93014220133398 90.55079249280394 41.78750930785651 H 0.0 **** 0.06
33154 H 100.46706709181464 90.89512810175847 43.471704077512584 H 0.0 **** 0.06
33155 H 101.61855157920809 91.96045198923508 42.63002951745926 H 0.0 **** 0.06
33156 C 45.086115185674274 65.66987057119437 6.5837246741614734 C 0.0 **** -0.24
33157 H 45.76283754097463 65.00069881536231 6.051747586498237 H 0.0 **** 0.06
33158 H 44.410307863221874 66.14429268484025 5.87229254107713 H 0.0 **** 0.06
33159 H 45.665162400956135 66.43579210749331 7.101033262999408 H 0.0 **** 0.06
33160 H 44.5079424930361 65.09991082959533 7.310398429284987 H 0.0 **** 0.06
33161 C 99.13079784698337 88.9645330139113 61.80682276848819 C 0.0 **** -0.24
33162 H 99.1380706190946 88.04843013013965 61.21436828836897 H 0.0 **** 0.06
33163 H 98.28282618253448 88.9458104842879 62.49209362377701 H 0.0 **** 0.06
33164 H 99.04448515136744 89.82508792822037 61.14324538706103 H 0.0 **** 0.06
33165 H 100.05765889551125 89.03569235773278 62.37644417176932 H 0.0 **** 0.06
33166 C 30.919972715875076 97.53554667634296 2.3333247170020606 C 0.0 **** -0.24
33167 H 30.177924823292074 96.76614882491873 2.54587923264096 H 0.0 **** 0.06
33168 H 31.25174189371799 97.44215559027094 1.29920243569266 H 0.0 **** 0.06
33169 H 31.77257406240878 97.41177759975824 3.0014884418703662 H 0.0 **** 0.06
33170 H 30.477344819859 98.519165322285 2.4862115965879887 H 0.0 **** 0.06
33171 C 30.89753150776096 93.65449002038994 96.68067584907737 C 0.0 **** -0.24
33172 H 31.15503658228114 92.61732256282937 96.8956418431099 H 0.0 **** 0.06
33173 H 31.7854704044481 94.27802288440947 96.7813476385291 H 0.0 **** 0.06
33174 H 30.133849903245988 93.99162396901846 97.38191739552661 H 0.0 **** 0.06
33175 H 30.51371730513503 93.72989344426438 95.66303073415708 H 0.0 **** 0.06
33176 C 54.69240627727862 73.0595075666389 9.629879899132959 C 0.0 **** -0.24
33177 H 55.04634421252601 72.58421775545764 8.714736667050659 H 0.0 **** 0.06
33178 H 55.43084407011756 72.92135587468351 10.418822374510171 H 0.0 **** 0.06
33179 H 53.74827643286832 72.60681116750129 9.931935099590135 H 0.0 **** 0.06
33180 H 54.54449334726144 74.12481652157817 9.451744591613107 H 0.0 **** 0.06
33181 C 85.19261045281868 59.63155549330143 88.01074305155356 C 0.0 **** -0.24
33182 H 85.41602812728593 60.68822234113714 88.15635644016083 H 0.0 **** 0.06
33183 H 84.45971601075905 59.52207642341282 87.2105782470939 H 0.0 **** 0.06
33184 H 84.7893444843545 59.21433978446658 88.93323053396398 H 0.0 **** 0.06
33185 H 86.10667347934066 59.10132983595211 87.74171487613256 H 0.0 **** 0.06
33186 C 33.51371698856683 111.81243773794183 27.194543973932163 C 0.0 **** -0.24
33187 H 33.057002951662014 110.85871948652424 27.460559768803513 H 0.0 **** 0.06
33188 H 33.282187506251475 112.55152633824241 27.961142744812655 H 0.0 **** 0.06
33189 H 33.119154792764064 112.14736039813823 26.235122237357608 H 0.0 **** 0.06
33190 H 34.59349183860955 111.68949084192043 27.12002005662125 H 0.0 **** 0.06
33191 C 13.492953062041977 59.95234167234503 35.90667295457581 C 0.0 **** -0.24
33192 H 14.510861319560405 60.30576667609091 36.07657063308892 H 0.0 **** 0.06
33193 H 13.23680649204448 59.20916410247088 36.662193067182216 H 0.0 **** 0.06
33194 H 13.424950332345048 59.503599696841604 34.91607071875126 H 0.0 **** 0.06
33195 H 12.801211168166702 60.79193401134006 35.97378789688537 H 0.0 **** 0.06
33196 C 87.81632972144465 110.28377694462208 88.36750825281291 C 0.0 **** -0.24
33197 H 88.62634349869248 110.44560109146775 87.6568000460461 H 0.0 **** 0.06
33198 H 88.0592848825116 110.7733845056172 89.31136040374446 H 0.0 **** 0.06
33199 H 87.68843424797063 109.21464801959772 88.53476140145236 H 0.0 **** 0.06
33200 H 86.89360950702041 110.70327101730467 87.96759494696249 H 0.0 **** 0.06
33201 C 53.29869597720935 52.49963920975486 111.47054035077787 C 0.0 **** -0.24
33202 H 53.699460236546486 51.884612107684205 110.66468164623285 H 0.0 **** 0.06
33203 H 53.82871349722987 52.27481632846499 112.39657043778399 H 0.0 **** 0.06
33204 H 52.23733536004178 52.28484126216739 111.59870472484289 H 0.0 **** 0.06
33205 H 53.428444454024714 53.55261842300516 111.22343997866807 H 0.0 **** 0.06
33206 C 33.763425422543484 33.57485631182263 37.59907109895602 C 0.0 **** -0.24
33207 H 33.442707071456006 33.892696060913636 36.606907698986504 H 0.0 **** 0.06
33208 H 34.03901459691595 34.44859595618831 38.18916531139287 H 0.0 **** 0.06
33209 H 34.624408221433846 32.91191891952636 37.50684164435589 H 0.0 **** 0.06
33210 H 32.94795879940544 33.04485241841601 38.09237191498647 H 0.0 **** 0.06
33211 C 25.537222465630606 99.71821648715837 16.752814096644954 C 0.0 **** -0.24
33212 H 24.91126346075154 100.60638983262555 16.842814326145174 H 0.0 **** 0.06
33213 H 24.90896562605758 98.85146145281135 16.5456651917238 H 0.0 **** 0.06
33214 H 26.079713190063444 99.56015529012797 17.685650695854463 H 0.0 **** 0.06
33215 H 26.248158761698022 99.85532961771781 15.937522007798009 H 0.0 **** 0.06
33216 C 56.13390786482069 61.77873085115572 35.12573053427121 C 0.0 **** -0.24
33217 H 57.03703420340059 62.041873058600565 34.575419220323454 H 0.0 **** 0.06
33218 H 55.625889421478426 60.95691691362722 34.61909081799104 H 0.0 **** 0.06
33219 H 55.471121512210296 62.643515197370654 35.16966128741757 H 0.0 **** 0.06
33220 H 56.400497472290844 61.47272453035395 36.137076493155234 H 0.0 **** 0.06
33221 C 101.43243050996034 115.34073247675317 115.2411674582462 C 0.0 **** -0.24
33222 H 100.44578271195482 115.63319455944693 115.60061234736378 H 0.0 **** 0.06
33223 H 101.47235782423817 114.25705040960622 115.13458645452639 H 0.0 **** 0.06
33224 H 102.18953660265481 115.66532016740723 115.95388947501138 H 0.0 **** 0.06
33225 H 101.61900586334426 115.80797163945556 114.27439977588142 H 0.0 **** 0.06
33226 C 18.379496637474432 56.553822652179555 19.58738552544463 C 0.0 **** -0.24
33227 H 18.412190371984735 57.614418634860904 19.837924715209226 H 0.0 **** 0.06
33228 H 17.349530139548506 56.20028598509108 19.642697846352576 H 0.0 **** 0.06
33229 H 18.994876960222967 55.99515701312358 20.292509858713572 H 0.0 **** 0.06
33230 H 18.760195964046403 56.40799319333886 18.576368030211654 H 0.0 **** 0.06
33231 C 57.09275348393635 118.01988879857848 88.91370470456201 C 0.0 **** -0.24
33232 H 56.93437480264117 116.99231124282298 89.242774907985 H 0.0 **** 0.06
33233 H 56.18329906875891 118.5977817823084 89.08003862265386 H 0.0 **** 0.06
33234 H 57.338526274049286 118.02671211614577 87.85220025480857 H 0.0 **** 0.06
33235 H 57.91241506769558 118.4600936799888 89.4802415799042 H 0.0 **** 0.06
33236 C 68.16777948858879 0.1427091402491385 16.215387174878614 C 0.0 **** -0.24
33237 H 68.26782884089477 -0.9215410373092823 15.998829238491464 H 0.0 **** 0.06
33238 H 67.23458542195024 0.5132642059333534 15.791673447603216 H 0.0 **** 0.06
33239 H 69.0071572073712 0.6824422501176457 15.77546461300749 H 0.0 **** 0.06
33240 H 68.16349259316553 0.29469451308781913 17.295028168763224 H 0.0 **** 0.06
33241 C 95.33979476427939 84.63058079046775 58.67154126224557 C 0.0 **** -0.24
33242 H 95.09183677271557 83.6677089084285 59.11722398777084 H 0.0 **** 0.06
33243 H 96.28316161676733 84.98868635891012 59.083311745907395 H 0.0 **** 0.06
33244 H 94.54989579019863 85.34806834471462 58.89319138096522 H 0.0 **** 0.06
33245 H 95.43460713702791 84.51637046164416 57.59051983201721 H 0.0 **** 0.06
33246 C 70.51130478960573 72.7747698926724 29.678101373280015 C 0.0 **** -0.24
33247 H 71.22747620579278 71.95724994203917 29.761995428415815 H 0.0 **** 0.06
33248 H 71.04438826922546 73.7053743457572 29.47869968356872 H 0.0 **** 0.06
33249 H 69.95512428103993 72.86769001158021 30.611641272027384 H 0.0 **** 0.06
33250 H 69.81961414626397 72.56958596943534 28.861916284996852 H 0.0 **** 0.06
33251 C 108.01471986100745 3.617922236458469 89.96450414399473 C 0.0 **** -0.24
33252 H 108.40522785033357 2.941808516397117 90.72445497224385 H 0.0 **** 0.06
33253 H 107.63844358069235 4.5230708679067675 90.44184963964085 H 0.0 **** 0.06
33254 H 107.20580682535186 3.127619994303302 89.42335171550354 H 0.0 **** 0.06
33255 H 108.81171379444422 3.8798818775605355 89.26794442702305 H 0.0 **** 0.06
33256 C 84.17667952271785 19.431506611588304 41.784707842050025 C 0.0 **** -0.24
33257 H 83.86748621826959 19.971505338648456 40.88929201954181 H 0.0 **** 0.06
33258 H 83.52505360775876 19.704039469305144 42.61487172665636 H 0.0 **** 0.06
33259 H 85.20547062406828 19.694560753221253 42.028973904151016 H 0.0 **** 0.06
33260 H 84.10787806756068 18.358630792992642 41.60470947451424 H 0.0 **** 0.06
33261 C 0.0739843433648133 25.70551813833356 18.921498448708334 C 0.0 **** -0.24
33262 H 1.108816171818276 25.364097582923108 18.905698559487107 H 0.0 **** 0.06
33263 H -0.49032768101410795 25.192488779899094 18.142312061930923 H 0.0 **** 0.06
33264 H 0.04441957743428304 26.781076562953984 18.744017088248796 H 0.0 **** 0.06
33265 H -0.3649699194012044 25.48533994627175 19.894328987041035 H 0.0 **** 0.06
33266 C 34.178278063970765 12.736612891739252 110.90458849437042 C 0.0 **** -0.24
33267 H 34.31750864394414 11.99485206531947 111.69077948076725 H 0.0 **** 0.06
33268 H 35.14521315151674 13.150329309378531 110.61895619836432 H 0.0 **** 0.06
33269 H 33.53478337292955 13.536715396402276 111.27074849593342 H 0.0 **** 0.06
33270 H 33.71403032560704 12.264781524701167 110.03854994332946 H 0.0 **** 0.06
33271 C 15.18182142931175 97.49885929960453 8.935666078406541 C 0.0 **** -0.24
33272 H 14.102492815529807 97.53380815284757 9.084114374337304 H 0.0 **** 0.06
33273 H 15.397131778243903 97.19874324936634 7.90902031889334 H 0.0 **** 0.06
33274 H 15.619863679146423 96.77656188037164 9.625171008039132 H 0.0 **** 0.06
33275 H 15.607013260639679 98.48473018214631 9.123000171458244 H 0.0 **** 0.06
33276 C 4.544247014873633 107.80956928225925 81.48404142362429 C 0.0 **** -0.24
33277 H 4.237998818354583 107.85790808721896 82.52910504935846 H 0.0 **** 0.06
33278 H 4.292986331661723 106.8307915672334 81.07659600757086 H 0.0 **** 0.06
33279 H 5.620866408000552 107.9678621176567 81.41348867178334 H 0.0 **** 0.06
33280 H 4.025899522063554 108.58326118701353 80.91680748846554 H 0.0 **** 0.06
33281 C 52.70484221259801 12.3349085274623 106.0505532706062 C 0.0 **** -0.24
33282 H 53.76732203349894 12.231969554352244 105.83492015252315 H 0.0 **** 0.06
33283 H 52.12867912748774 11.771581059122497 105.3154614917847 H 0.0 **** 0.06
33284 H 52.42362508360196 13.387075424267522 106.00326339026529 H 0.0 **** 0.06
33285 H 52.4973114310782 11.948739702058443 107.04870115804135 H 0.0 **** 0.06
33286 C 109.56832210710238 105.02618228561909 36.71448579873402 C 0.0 **** -0.24
33287 H 109.938544316573 104.01238969922804 36.86907788735766 H 0.0 **** 0.06
33288 H 108.56372916216952 105.11248848882477 37.12812308302324 H 0.0 **** 0.06
33289 H 109.5418282510449 105.24330711252844 35.64647527578086 H 0.0 **** 0.06
33290 H 110.22915346071706 105.73487430038662 37.2131661487802 H 0.0 **** 0.06
33291 C 75.12797475928468 3.9945928565311135 11.793831772017356 C 0.0 **** -0.24
33292 H 75.09424235376497 3.088084953693894 11.189596627544862 H 0.0 **** 0.06
33293 H 75.00554772651711 4.865221105889731 11.148282597477241 H 0.0 **** 0.06
33294 H 76.08864695447792 4.0542397646962485 12.305455417978049 H 0.0 **** 0.06
33295 H 74.32438718728739 3.9709874408596733 12.529730102838592 H 0.0 **** 0.06
33296 C 61.110045666171054 46.5093832687607 11.562517225837837 C 0.0 **** -0.24
33297 H 61.06771558496218 46.11296929974327 12.576410035287722 H 0.0 **** 0.06
33298 H 61.34407472439559 45.70357174868724 10.86647355542209 H 0.0 **** 0.06
33299 H 61.88338510838937 47.27630902166783 11.50542390724695 H 0.0 **** 0.06
33300 H 60.14590282241321 46.94691122129092 11.303255883546512 H 0.0 **** 0.06
33301 C 23.569663867910606 65.84431960081233 2.346511200042812 C 0.0 **** -0.24
33302 H 23.50532076763848 66.4105241987701 3.2749781140444725 H 0.0 **** 0.06
33303 H 24.396993954812558 65.13647933511564 2.4094614597244117 H 0.0 **** 0.06
33304 H 23.73881491635494 66.52722500388802 1.5148071537827832 H 0.0 **** 0.06
33305 H 22.638653110559332 65.30043468801895 2.1877417986551677 H 0.0 **** 0.06
33306 C 61.767823946200735 16.647056327014983 20.9607881670586 C 0.0 **** -0.24
33307 H 62.77191393217166 16.760068394572066 20.55270716221028 H 0.0 **** 0.06
33308 H 61.368293186071554 15.672896656593196 20.677818713787328 H 0.0 **** 0.06
33309 H 61.1236328239892 17.43244370245823 20.565253026756192 H 0.0 **** 0.06
33310 H 61.80656046744497 16.72266484947092 22.047792510685017 H 0.0 **** 0.06
33311 C 56.165588956787936 22.26189164985115 81.4307139291904 C 0.0 **** -0.24
33312 H 57.121691849204375 21.96445328796068 81.86121507822565 H 0.0 **** 0.06
33313 H 56.13211259661207 21.968210135793413 80.38123352898091 H 0.0 **** 0.06
33314 H 56.053333931605856 23.34361673016076 81.50913124028088 H 0.0 **** 0.06
33315 H 55.35533803061019 21.773270665215165 81.97149624750932 H 0.0 **** 0.06
33316 C 67.04755483805411 70.72044328217521 73.60227952311527 C 0.0 **** -0.24
33317 H 67.51236436409235 71.69659966869733 73.74162584374082 H 0.0 **** 0.06
33318 H 67.46104830522754 70.24447772463893 72.71294070700546 H 0.0 **** 0.06
33319 H 65.97136060269975 70.84548952891186 73.48063658687286 H 0.0 **** 0.06
33320 H 67.24514621937564 70.0965283032302 74.47351213885887 H 0.0 **** 0.06
33321 C 88.33940085396398 112.93161804676987 24.318237284590587 C 0.0 **** -0.24
33322 H 88.09991544830984 113.4060957046132 23.366970119026917 H 0.0 **** 0.06
33323 H 89.36811028885646 112.5694191230219 24.294268161447178 H 0.0 **** 0.06
33324 H 87.66360757013646 112.09409472895717 24.487384025110046 H 0.0 **** 0.06
33325 H 88.22874716058502 113.65734395099432 25.124088545032727 H 0.0 **** 0.06
33326 C 1.2758695955013124 23.321053698580613 36.28847756810393 C 0.0 **** -0.24
33327 H 0.3354050734428551 23.040755639618112 36.7638459553408 H 0.0 **** 0.06
33328 H 1.1523316976065843 24.27378918177135 35.77366784615151 H 0.0 **** 0.06
33329 H 1.561040552317296 22.55259004582888 35.56974066987982 H 0.0 **** 0.06
33330 H 2.052254554847517 23.414514568398204 37.04731482696701 H 0.0 **** 0.06
33331 C 46.751744155400544 49.59554533673332 90.08155093350422 C 0.0 **** -0.24
33332 H 46.852368984159 48.7342633687787 89.42175510481692 H 0.0 **** 0.06
33333 H 47.25863490566596 50.45319443319458 89.63769121876135 H 0.0 **** 0.06
33334 H 47.20110044056284 49.36840811859402 91.04776318885277 H 0.0 **** 0.06
33335 H 45.69562815320401 49.82760790195496 90.21705552850682 H 0.0 **** 0.06
33336 C 38.84894621452432 52.70642673309246 41.519947548456116 C 0.0 **** -0.24
33337 H 39.67580165990745 52.07070798780339 41.838643946731 H 0.0 **** 0.06
33338 H 37.987208544715685 52.08444600128067 41.27442398049311 H 0.0 **** 0.06
33339 H 39.147624350772816 53.27730114201941 40.64074942005817 H 0.0 **** 0.06
33340 H 38.584912780892694 53.39082926624917 42.326247179973336 H 0.0 **** 0.06
33341 C 32.24376802303249 40.94020037882035 112.221071940397 C 0.0 **** -0.24
33342 H 32.95010697486691 40.11193489367881 112.27550656818141 H 0.0 **** 0.06
33343 H 32.08792052657114 41.21787072902697 111.17946827308907 H 0.0 **** 0.06
33344 H 32.642847423761964 41.79411053042395 112.76991048202603 H 0.0 **** 0.06
33345 H 31.29422871937831 40.636783314338516 112.66376015596188 H 0.0 **** 0.06
33346 C 38.08188674314999 91.61041859531227 30.540727817360107 C 0.0 **** -0.24
33347 H 37.63353406452475 91.04171937370322 29.726055096705096 H 0.0 **** 0.06
33348 H 39.00102371489393 91.11886296148711 30.8628938923421 H 0.0 **** 0.06
33349 H 37.384616499704244 91.66141564347109 31.376043917041244 H 0.0 **** 0.06
33350 H 38.311374861432185 92.61881231608518 30.196118056893653 H 0.0 **** 0.06
33351 C 53.599330874827004 43.77180303355843 78.46499324735049 C 0.0 **** -0.24
33352 H 52.99139023158717 43.7972157825954 77.56054316836645 H 0.0 **** 0.06
33353 H 54.01080773586102 42.77145010193044 78.5972934373792 H 0.0 **** 0.06
33354 H 52.98121498647299 44.02755838170678 79.32554976249807 H 0.0 **** 0.06
33355 H 54.4134096092062 44.491718716850116 78.37548433262077 H 0.0 **** 0.06
33356 C 0.5245100941584155 44.455625962263866 43.44338994545705 C 0.0 **** -0.24
33357 H -0.437604032492402 44.41484777248519 42.932837196754896 H 0.0 **** 0.06
33358 H 0.9616457693860525 43.45741621917699 43.4737098832355 H 0.0 **** 0.06
33359 H 0.38043403726874203 44.8214006124237 44.45986106873113 H 0.0 **** 0.06
33360 H 1.191949489988076 45.12874143960369 42.905976014116035 H 0.0 **** 0.06
33361 C 61.55259711786249 13.419732413549383 22.60262852325033 C 0.0 **** -0.24
33362 H 60.972029703634064 12.881164657655766 21.85327023029231 H 0.0 **** 0.06
33363 H 60.875094459422996 13.952062946367825 23.27119788772734 H 0.0 **** 0.06
33364 H 62.21012634293032 14.134436767006722 22.108139343360534 H 0.0 **** 0.06
33365 H 62.15056754888309 12.712778878941396 23.177586454380688 H 0.0 **** 0.06
33366 C 63.428362148168446 53.66895673640033 1.436213818364692 C 0.0 **** -0.24
33367 H 62.67860476593563 54.347863457252316 1.029604524648846 H 0.0 **** 0.06
33368 H 64.422599669612 54.077376763710646 1.2591479621323742 H 0.0 **** 0.06
33369 H 63.34098241188153 52.6972767458243 0.9491435961113837 H 0.0 **** 0.06
33370 H 63.26836333565964 53.55289190832917 2.5085164583943538 H 0.0 **** 0.06
33371 C 100.12244875135315 99.05875266074355 35.14949723376719 C 0.0 **** -0.24
33372 H 100.25255377624566 97.99289964099654 34.96223915490782 H 0.0 **** 0.06
33373 H 99.82213437066437 99.21143505724359 36.18630046910192 H 0.0 **** 0.06
33374 H 99.3532392184101 99.45278375666183 34.48517293875426 H 0.0 **** 0.06
33375 H 101.06398223054543 99.57665667256828 34.96422779241209 H 0.0 **** 0.06
33376 C 4.278516702351112 42.59110679861689 99.9224699696567 C 0.0 **** -0.24
33377 H 3.452484406913385 42.5934731085209 99.21197608500188 H 0.0 **** 0.06
33378 H 4.746359738514855 41.605663653420635 99.93115238859338 H 0.0 **** 0.06
33379 H 3.902197686856127 42.82388105766759 100.9183668936995 H 0.0 **** 0.06
33380 H 5.013941683622548 43.33981990581688 99.62676167779034 H 0.0 **** 0.06
33381 C 48.50262061147363 84.34092844546538 98.46889086576968 C 0.0 **** -0.24
33382 H 49.190313985271544 83.60502975007657 98.0522021297167 H 0.0 **** 0.06
33383 H 47.6111617381157 83.83536035375997 98.84045050532373 H 0.0 **** 0.06
33384 H 48.220755701844354 85.05341979274817 97.69445445890997 H 0.0 **** 0.06
33385 H 48.989441735872305 84.86901241795272 99.28934387066394 H 0.0 **** 0.06
33386 C 91.25547079324403 94.57067657549962 39.26713912573581 C 0.0 **** -0.24
33387 H 90.38495663631707 95.17892831375678 39.510214055355156 H 0.0 **** 0.06
33388 H 91.25252354380137 93.67008017437985 39.8824618857968 H 0.0 **** 0.06
33389 H 92.16312555147158 95.1411232635007 39.46263835335606 H 0.0 **** 0.06
33390 H 91.22110205485609 94.29189439336758 38.213954026240216 H 0.0 **** 0.06
33391 C 18.829980534568904 69.42983193119659 20.326563681032354 C 0.0 **** -0.24
33392 H 19.005825923477744 68.35422432349111 20.339763615966547 H 0.0 **** 0.06
33393 H 18.089884154543427 69.68646232023485 21.084971751177108 H 0.0 **** 0.06
33394 H 18.462843340126597 69.72549867322161 19.343575354992907 H 0.0 **** 0.06
33395 H 19.763258083642654 69.95198240786408 20.537652457213284 H 0.0 **** 0.06
33396 C 102.03443373393236 5.92788286027195 112.60657445269801 C 0.0 **** -0.24
33397 H 102.79616320790797 6.286154650083773 111.9150370156009 H 0.0 **** 0.06
33398 H 102.33094370119278 6.166833442113017 113.62855640342937 H 0.0 **** 0.06
33399 H 101.92727339468527 4.848920418538597 112.50185008647583 H 0.0 **** 0.06
33400 H 101.08407708560546 6.411052725991169 112.38151303194564 H 0.0 **** 0.06
33401 C 117.24398637216407 47.89994625419152 42.10636403636458 C 0.0 **** -0.24
33402 H 117.36702651047122 48.5929287013719 42.93882787134095 H 0.0 **** 0.06
33403 H 118.00744322166702 47.12438697086978 42.16447586595601 H 0.0 **** 0.06
33404 H 117.34725614693403 48.44116800944636 41.16516798210965 H 0.0 **** 0.06
33405 H 116.25600949116247 47.443479146374415 42.15675219694448 H 0.0 **** 0.06
33406 C 39.610561075345146 34.514458389294134 97.58114221060498 C 0.0 **** -0.24
33407 H 38.88651535229417 35.32682984842597 97.63780729191225 H 0.0 **** 0.06
33408 H 40.61450028102948 34.930048412598296 97.48747445733633 H 0.0 **** 0.06
33409 H 39.39180602933416 33.89247021067223 96.71333434719048 H 0.0 **** 0.06
33410 H 39.55105585002647 33.910111906657676 98.48678125370114 H 0.0 **** 0.06
33411 C 22.848032831394164 18.79279783084303 76.31848768195036 C 0.0 **** -0.24
33412 H 22.635684826318652 19.641005518813472 76.96838886117897 H 0.0 **** 0.06
33413 H 23.362040793890912 18.018485190610164 76.88783319051208 H 0.0 **** 0.06
33414 H 23.48182573021137 19.118595946995754 75.49290074166314 H 0.0 **** 0.06
33415 H 21.913408403000574 18.394756006897666 75.92356814220884 H 0.0 **** 0.06
33416 C 103.02909966000931 14.064488883985724 69.01697330111574 C 0.0 **** -0.24
33417 H 102.72585167530218 13.93748694592847 67.97753799247238 H 0.0 **** 0.06
33418 H 102.53596238808126 13.312855236362353 69.63436145330928 H 0.0 **** 0.06
33419 H 102.74354729701696 15.06008441990371 69.35930801142567 H 0.0 **** 0.06
33420 H 104.10943955170723 13.948730382642115 69.09674915270242 H 0.0 **** 0.06
33421 C 30.357291148827983 2.7562726893437457 107.67707085835323 C 0.0 **** -0.24
33422 H 30.379554006057987 3.192384124010289 108.67579141620075 H 0.0 **** 0.06
33423 H 29.336444996471613 2.774261691331276 107.29609701629659 H 0.0 **** 0.06
33424 H 30.709754947553705 1.72556285992124 107.72342951261683 H 0.0 **** 0.06
33425 H 31.003207477477893 3.3327256793322704 107.01467850806222 H 0.0 **** 0.06
33426 C 26.62445241758254 15.007808276470058 49.71354785611746 C 0.0 **** -0.24
33427 H 26.01936626572609 14.137389957213855 49.45748470144636 H 0.0 **** 0.06
33428 H 25.98084058781717 15.883988189106503 49.80485650362783 H 0.0 **** 0.06
33429 H 27.362714476906675 15.179672799949799 48.930651150916106 H 0.0 **** 0.06
33430 H 27.1338137504942 14.829700408775807 50.660415939561176 H 0.0 **** 0.06
33431 C 71.39501163368698 72.92858534297827 110.12535821165018 C 0.0 **** -0.24
33432 H 72.09508719569209 73.67312866752269 109.74555819915929 H 0.0 **** 0.06
33433 H 70.38317390143132 73.33287436073775 110.09238280308215 H 0.0 **** 0.06
33434 H 71.65325266152237 72.67887762936607 111.1541580763385 H 0.0 **** 0.06
33435 H 71.44885167708244 72.03206188847034 109.50826950137377 H 0.0 **** 0.06
33436 C 100.2295787312166 106.88442624150417 8.885116016529054 C 0.0 **** -0.24
33437 H 101.06447906373711 107.5748115129137 8.765712616542146 H 0.0 **** 0.06
33438 H 99.62810591122741 107.18786246457972 9.742538624167281 H 0.0 **** 0.06
33439 H 100.61154650491716 105.87659691919112 9.046792316657587 H 0.0 **** 0.06
33440 H 99.61374671870058 106.90035031938834 7.9857913053349705 H 0.0 **** 0.06
33441 C 37.76822784109635 93.15724981615213 24.879309187479464 C 0.0 **** -0.24
33442 H 38.85727607805046 93.14439075611276 24.933937149401544 H 0.0 **** 0.06
33443 H 37.454935565925666 93.77501471642185 24.037032443934322 H 0.0 **** 0.06
33444 H 37.363987441869824 93.56981997269895 25.803678774644567 H 0.0 **** 0.06
33445 H 37.39959754304135 92.14102063460771 24.74293664349682 H 0.0 **** 0.06
33446 C 55.25537425084619 17.23046498773971 69.48948781798222 C 0.0 **** -0.24
33447 H 55.305855772787226 16.142034368225865 69.5266227248141 H 0.0 **** 0.06
33448 H 54.36115121047257 17.533560025067658 68.94381558175266 H 0.0 **** 0.06
33449 H 56.139418284750064 17.618503533956442 68.98405852459948 H 0.0 **** 0.06
33450 H 55.21384421733677 17.62611540657585 70.50433882997271 H 0.0 **** 0.06
33451 C 103.58300719094672 43.5087161110624 17.61344050705995 C 0.0 **** -0.24
33452 H 102.50110239509738 43.638167185978176 17.64888096799774 H 0.0 **** 0.06
33453 H 103.97766988635209 43.472267549466466 18.62930195656935 H 0.0 **** 0.06
33454 H 104.03186564212848 44.3450343095339 17.077855303287464 H 0.0 **** 0.06
33455 H 103.81984248110132 42.577043217107956 17.09798892603976 H 0.0 **** 0.06
33456 C 93.85964761829149 101.74647586355897 87.03966512838514 C 0.0 **** -0.24
33457 H 92.98433938713217 101.19188942305797 86.70112567191899 H 0.0 **** 0.06
33458 H 94.69277362979327 101.05882994466293 87.18428426552873 H 0.0 **** 0.06
33459 H 93.63121469712627 102.24466659514357 87.98186413359716 H 0.0 **** 0.06
33460 H 94.12935042115649 102.49198741218925 86.29130189715721 H 0.0 **** 0.06
33461 C 100.39198496131107 50.59891574408675 98.31099558135793 C 0.0 **** -0.24
33462 H 101.15275224039667 50.4525805159943 99.07751609365408 H 0.0 **** 0.06
33463 H 100.73049835352134 50.15484665020412 97.37401213034116 H 0.0 **** 0.06
33464 H 100.22090931231989 51.66592697927777 98.16762288810577 H 0.0 **** 0.06
33465 H 99.4636849106264 50.12107417454379 98.62551437544823 H 0.0 **** 0.06
33466 C 13.290428670229833 37.59097911884007 76.3230485770024 C 0.0 **** -0.24
33467 H 13.720459495019533 38.54055397266288 76.00723129774255 H 0.0 **** 0.06
33468 H 13.712559577863747 36.78356364914156 75.72523481854995 H 0.0 **** 0.06
33469 H 12.209148893964112 37.6182475745659 76.18595342303382 H 0.0 **** 0.06
33470 H 13.518135913506697 37.42116108130608 77.37546523617058 H 0.0 **** 0.06
33471 C 117.95674537198789 47.09828412525269 18.366420604761487 C 0.0 **** -0.24
33472 H 117.06446786384994 46.94993004266445 17.756976127377627 H 0.0 **** 0.06
33473 H 118.30668330524463 48.12489852204931 18.253332339988873 H 0.0 **** 0.06
33474 H 118.73652191664014 46.40996806164668 18.0408824521148 H 0.0 **** 0.06
33475 H 117.71843692334406 46.90809493325361 19.41221534499249 H 0.0 **** 0.06
33476 C 56.41269372827683 32.4560517643919 16.8391465530662 C 0.0 **** -0.24
33477 H 55.5825243180742 32.857489990367384 16.25790591913443 H 0.0 **** 0.06
33478 H 57.03629433758264 31.83303210104546 16.19722490171401 H 0.0 **** 0.06
33479 H 56.02333219763995 31.855862683352 17.661040822427168 H 0.0 **** 0.06
33480 H 57.007478009378836 33.27732097661723 17.237687704940384 H 0.0 **** 0.06
33481 C 29.842166980104302 104.17756417353351 100.05629337857056 C 0.0 **** -0.24
33482 H 29.99722812792121 103.93317459772592 101.10698282955809 H 0.0 **** 0.06
33483 H 28.900251979624343 103.74651904451608 99.71783397776429 H 0.0 **** 0.06
33484 H 30.662421582236526 103.77114638126255 99.46464945600243 H 0.0 **** 0.06
33485 H 29.80918181260975 105.26130854168048 99.93682457290771 H 0.0 **** 0.06
33486 C 4.384097828752758 23.11771378712399 29.10695946631637 C 0.0 **** -0.24
33487 H 4.728545909011359 22.817374965697297 30.097176996103997 H 0.0 **** 0.06
33488 H 3.2976124672230753 23.042525944279333 29.062194334897868 H 0.0 **** 0.06
33489 H 4.825301728043883 22.461379826033834 28.355972451153207 H 0.0 **** 0.06
33490 H 4.686527248867037 24.146546566673834 28.91400591373298 H 0.0 **** 0.06
33491 C 7.420897295687837 111.48254629300483 115.36628140641224 C 0.0 **** -0.24
33492 H 8.275958847087182 111.98012299842202 115.82336532387411 H 0.0 **** 0.06
33493 H 6.713140444990614 112.23073262262115 115.00860829205942 H 0.0 **** 0.06
33494 H 6.934101548980891 110.84588918922037 116.10581725246224 H 0.0 **** 0.06
33495 H 7.760030465360629 110.87330515071285 114.52929788657607 H 0.0 **** 0.06
33496 C 8.516233836608762 67.51336241412565 0.30389520035726036 C 0.0 **** -0.24
33497 H 8.089592170688348 66.51141129185635 0.34310450370639956 H 0.0 **** 0.06
33498 H 7.977075346241691 68.16494852289338 0.9921700623502829 H 0.0 **** 0.06
33499 H 8.431354203355411 67.90539379845993 -0.709846600051776 H 0.0 **** 0.06
33500 H 9.5669136261495 67.47169604329287 0.5901528354242487 H 0.0 **** 0.06
33501 C 118.13981157410703 6.060694901880964 43.81293257265321 C 0.0 **** -0.24
33502 H 117.58606096407107 6.9355782523389 44.1538577333759 H 0.0 **** 0.06
33503 H 117.4738080857374 5.402803557693318 43.254379157808216 H 0.0 **** 0.06
33504 H 118.53932400894007 5.526100961027183 44.67487382132248 H 0.0 **** 0.06
33505 H 118.9615648131315 6.378589651359803 43.170241210580514 H 0.0 **** 0.06
33506 C 26.422612937007955 82.68320014275002 18.805688481450968 C 0.0 **** -0.24
33507 H 26.804007942146598 81.77389588311797 18.342972496046176 H 0.0 **** 0.06
33508 H 25.983903050639015 83.32477137689659 18.04039399359504 H 0.0 **** 0.06
33509 H 27.23997895019602 83.21131804927091 19.29779305224571 H 0.0 **** 0.06
33510 H 25.66213684081299 82.42505990045646 19.542478326034022 H 0.0 **** 0.06
33511 C 102.0028738139263 100.5428648099564 81.76179004202572 C 0.0 **** -0.24
33512 H 102.08839517538172 100.67492807566299 80.68289292037466 H 0.0 **** 0.06
33513 H 101.07739674109635 101.00239397502264 82.11101889695911 H 0.0 **** 0.06
33514 H 102.85220149128736 101.01676911094378 82.25461944600156 H 0.0 **** 0.06
33515 H 101.99221558749704 99.47895325423798 81.99771619244595 H 0.0 **** 0.06
33516 C 78.49002163957482 18.33594386457091 13.142911892539331 C 0.0 **** -0.24
33517 H 79.34503508982823 19.011548978101693 13.153554752365608 H 0.0 **** 0.06
33518 H 77.87351849209986 18.516409354322327 14.023304772962746 H 0.0 **** 0.06
33519 H 78.8419988965831 17.304368057150032 13.151031826160391 H 0.0 **** 0.06
33520 H 77.89953407978831 18.511449068709652 12.243756218668437 H 0.0 **** 0.06
33521 C 16.928737067088306 28.79427047718079 54.799592131780855 C 0.0 **** -0.24
33522 H 17.194517314698714 27.82497854249675 55.220659272682155 H 0.0 **** 0.06
33523 H 16.93897987779596 29.54781117604304 55.58736055773613 H 0.0 **** 0.06
33524 H 15.93299366803376 28.739497162338438 54.36089580228054 H 0.0 **** 0.06
33525 H 17.650352352499283 29.06472347700648 54.02826783832893 H 0.0 **** 0.06
33526 C 35.33142695159894 58.30574704400721 17.360941037987715 C 0.0 **** -0.24
33527 H 34.54948477830348 58.13882963366155 16.619872480475397 H 0.0 **** 0.06
33528 H 35.030486364853196 57.86416297508293 18.311408234764464 H 0.0 **** 0.06
33529 H 35.48738962200418 59.3765601208189 17.490446048567126 H 0.0 **** 0.06
33530 H 36.257231654454536 57.8415207109913 17.021737399499898 H 0.0 **** 0.06
33531 C 14.543247659706736 10.398536435570577 11.28196569525079 C 0.0 **** -0.24
33532 H 14.857714621764245 11.407955856446705 11.017860601603786 H 0.0 **** 0.06
33533 H 13.491354839292228 10.40813168376701 11.56739868438649 H 0.0 **** 0.06
33534 H 15.142702076444522 10.03858441769151 12.118300276483467 H 0.0 **** 0.06
33535 H 14.681686394183004 9.738807589134979 10.424884492856364 H 0.0 **** 0.06
33536 C 10.168858727851966 57.42797562428252 104.05260835746998 C 0.0 **** -0.24
33537 H 10.329436530811403 58.19436897813592 104.81080329269255 H 0.0 **** 0.06
33538 H 9.399976429192101 56.734106362763235 104.39567855215475 H 0.0 **** 0.06
33539 H 11.09787661818989 56.88433974466698 103.88187658185734 H 0.0 **** 0.06
33540 H 9.846333100240525 57.89796956377287 103.12441312497447 H 0.0 **** 0.06
33541 C 70.10811875867304 111.60962802102141 81.63138982954615 C 0.0 **** -0.24
33542 H 70.22250916241188 110.61140183708854 81.20950494382407 H 0.0 **** 0.06
33543 H 70.02622736231612 111.53897784459596 82.71620822261855 H 0.0 **** 0.06
33544 H 69.2073794516387 112.07301995874782 81.22820226457054 H 0.0 **** 0.06
33545 H 70.97570835834685 112.21671557474187 81.37156181448404 H 0.0 **** 0.06
33546 C 48.88607630003159 54.956191420544684 38.19263178076869 C 0.0 **** -0.24
33547 H 48.817902699614855 53.948613670511065 38.6044898730475 H 0.0 **** 0.06
33548 H 48.9280875576214 55.67905860884292 39.0074677524463 H 0.0 **** 0.06
33549 H 48.01057783845364 55.154584694498965 37.57493761621714 H 0.0 **** 0.06
33550 H 49.78627865421802 55.03931961487359 37.584937034891595 H 0.0 **** 0.06
33551 C 93.2785641966056 7.98259602424498 75.6953845803252 C 0.0 **** -0.24
33552 H 94.26704319523975 7.6412685882811076 76.00241618447961 H 0.0 **** 0.06
33553 H 93.33945744033804 9.02005479342139 75.36630875766164 H 0.0 **** 0.06
33554 H 92.59162471769619 7.908969646786474 76.53816560044228 H 0.0 **** 0.06
33555 H 92.91767503143149 7.361490128045713 74.87680658943813 H 0.0 **** 0.06
33556 C 101.65524292273989 54.01081384048348 63.99899394482256 C 0.0 **** -0.24
33557 H 102.38976596549006 54.615233935221774 64.53155740543798 H 0.0 **** 0.06
33558 H 101.6087891510515 54.330641881336874 62.95782361153448 H 0.0 **** 0.06
33559 H 100.67650671177233 54.13642615223314 64.46164016467375 H 0.0 **** 0.06
33560 H 101.9468568353918 52.961429879987996 64.04401847798266 H 0.0 **** 0.06
33561 C 117.30827537045788 81.20435318315262 29.547284543138232 C 0.0 **** -0.24
33562 H 116.23090438002045 81.08225039525055 29.65753067307827 H 0.0 **** 0.06
33563 H 117.78736475255464 81.09824722012786 30.52014394064807 H 0.0 **** 0.06
33564 H 117.52156614016272 82.1931314579009 29.142025243862008 H 0.0 **** 0.06
33565 H 117.69178934323408 80.44295625505464 28.867977300868688 H 0.0 **** 0.06
33566 C 105.61559902250914 93.71286684599897 112.01098394173525 C 0.0 **** -0.24
33567 H 105.30084489197648 93.40894817915182 111.01231538315727 H 0.0 **** 0.06
33568 H 104.81071738263063 94.26737566702343 112.492171025309 H 0.0 **** 0.06
33569 H 106.4999949485125 94.34563339996771 111.93554581108441 H 0.0 **** 0.06
33570 H 105.85204339802613 92.82743837205226 112.60184018196983 H 0.0 **** 0.06
33571 C 92.29888134457269 11.660494842062178 87.43241670937508 C 0.0 **** -0.24
33572 H 92.55126505050293 12.558396507068409 86.8682158207904 H 0.0 **** 0.06
33573 H 91.40560793117118 11.203507436770138 87.00605569304503 H 0.0 **** 0.06
33574 H 92.11099809524154 11.926793153210042 88.47312259121043 H 0.0 **** 0.06
33575 H 93.12777263854161 10.955195166323705 87.38170083841197 H 0.0 **** 0.06
33576 C 55.37418396245647 95.31879054370853 0.6657930157980445 C 0.0 **** -0.24
33577 H 54.82887624789464 95.91331145538649 1.3987377249125075 H 0.0 **** 0.06
33578 H 56.32302855873587 94.99492724034326 1.0946952464312858 H 0.0 **** 0.06
33579 H 55.56223325619567 95.9211505667686 -0.22190700348647852 H 0.0 **** 0.06
33580 H 54.78127586357539 94.44530807026032 0.39365527219456453 H 0.0 **** 0.06
33581 C 3.072601120206894 72.27041823705756 61.20004030342958 C 0.0 **** -0.24
33582 H 3.3190216648921442 73.14775204134827 60.601587374285565 H 0.0 **** 0.06
33583 H 3.8924481658994683 71.55251727673439 61.1470145244565 H 0.0 **** 0.06
33584 H 2.162300078347913 71.81138359339562 60.813058601463034 H 0.0 **** 0.06
33585 H 2.916587573340335 72.56882309426206 62.23636401718934 H 0.0 **** 0.06
33586 C 69.42849722291163 107.42218531123217 61.27069401265921 C 0.0 **** -0.24
33587 H 69.18274865896842 107.17842236019536 60.23644553329837 H 0.0 **** 0.06
33588 H 70.47154403753979 107.16838659554364 61.464031074541744 H 0.0 **** 0.06
33589 H 68.78530028797354 106.85259299092141 61.941059455597916 H 0.0 **** 0.06
33590 H 69.27638346054232 108.48804493208021 61.43834601630042 H 0.0 **** 0.06
33591 C 19.779387353495565 57.44743536677018 91.91049123160113 C 0.0 **** -0.24
33592 H 19.388237812553896 58.19946388661393 92.59453334647489 H 0.0 **** 0.06
33593 H 20.09987077898495 57.92831208184373 90.98654778091526 H 0.0 **** 0.06
33594 H 19.00131938994167 56.716659198916005 91.69013697452215 H 0.0 **** 0.06
33595 H 20.629054086848328 56.943842669903006 92.37247549305945 H 0.0 **** 0.06
33596 C 57.673031716728396 12.225431614776028 47.17779071425835 C 0.0 **** -0.24
33597 H 58.583573686074764 12.278812838880896 47.7748688966399 H 0.0 **** 0.06
33598 H 57.89668093965769 11.761839003532288 46.21594010127234 H 0.0 **** 0.06
33599 H 57.28645897752498 13.231676358567483 47.0153111229715 H 0.0 **** 0.06
33600 H 56.9282278342616 11.62984298832447 47.70410415510318 H 0.0 **** 0.06
33601 C 24.392594270697657 11.134194812719613 105.43737402057289 C 0.0 **** -0.24
33602 H 25.282230031632082 10.84643967925956 104.87791292681442 H 0.0 **** 0.06
33603 H 23.938685322289132 12.009999441525906 104.9734262860608 H 0.0 **** 0.06
33604 H 24.670881178898867 11.370340198107385 106.46500595334786 H 0.0 **** 0.06
33605 H 23.679748683261494 10.309805364425472 105.43441495078076 H 0.0 **** 0.06
33606 C 39.80871690601304 23.144809867415773 56.35138583227496 C 0.0 **** -0.24
33607 H 40.028725806753606 23.775095303326026 57.21383583254868 H 0.0 **** 0.06
33608 H 40.51375817158906 22.312742476731444 56.32124664324516 H 0.0 **** 0.06
33609 H 39.90091716324764 23.732550130241265 55.439241140323645 H 0.0 **** 0.06
33610 H 38.79288912641824 22.757830320100496 56.434526369051014 H 0.0 **** 0.06
33611 C 115.32909415438107 37.400901171365014 38.0666971865852 C 0.0 **** -0.24
33612 H 114.81365502171084 38.36004508029369 38.020523470796206 H 0.0 **** 0.06
33613 H 115.96506346574049 37.37278454883122 38.95191529758651 H 0.0 **** 0.06
33614 H 115.94127155593429 37.27418247253189 37.174101120571294 H 0.0 **** 0.06
33615 H 114.59470152254926 36.59616345120135 38.12165482294208 H 0.0 **** 0.06
33616 C 50.487175841835665 86.69373459507875 89.13958372635139 C 0.0 **** -0.24
33617 H 51.01709970417639 87.30198392899996 88.40540383223919 H 0.0 **** 0.06
33618 H 51.208612960484885 86.14026885410084 89.74121797163718 H 0.0 **** 0.06
33619 H 49.82947500402912 85.99408095793336 88.62400836468854 H 0.0 **** 0.06
33620 H 49.89476146417809 87.34065260007645 89.78620327312109 H 0.0 **** 0.06
33621 C 98.45434339687867 88.11733778384882 56.09847941674337 C 0.0 **** -0.24
33622 H 98.81410125315728 87.53792740105902 55.248424453285566 H 0.0 **** 0.06
33623 H 97.59305738398808 88.71204062792398 55.79388705014878 H 0.0 **** 0.06
33624 H 99.24750444758234 88.77816188709497 56.449383491522326 H 0.0 **** 0.06
33625 H 98.16369803930226 87.44036665659675 56.90276545309973 H 0.0 **** 0.06
33626 C 105.9412650657705 78.59570768840769 54.618907624466345 C 0.0 **** -0.24
33627 H 106.07823780198171 79.5581984954012 55.112965872075705 H 0.0 **** 0.06
33628 H 106.78983753154304 77.94944172295155 54.842819723127235 H 0.0 **** 0.06
33629 H 105.87390231250197 78.74800562747006 53.54146658372966 H 0.0 **** 0.06
33630 H 105.02343854512878 78.13090953864432 54.978413817611425 H 0.0 **** 0.06
33631 C 116.78514749407549 85.97762017634929 81.93108551878294 C 0.0 **** -0.24
33632 H 116.3489618887742 86.31145764842594 80.98970397148116 H 0.0 **** 0.06
33633 H 117.64427478859264 85.3387071069993 81.72677950366298 H 0.0 **** 0.06
33634 H 116.04052693030039 85.41760476894035 82.4979978652448 H 0.0 **** 0.06
33635 H 117.10655296386426 86.84365452154069 82.51004892898493 H 0.0 **** 0.06
33636 C 1.4408958876648654 40.464452439409314 59.83028425728654 C 0.0 **** -0.24
33637 H 1.3139697371625232 39.835900794532336 60.71186475107117 H 0.0 **** 0.06
33638 H 1.1019984678331696 39.923155304829066 58.94645080373403 H 0.0 **** 0.06
33639 H 2.4943519162841454 40.723501534429005 59.717787079352526 H 0.0 **** 0.06
33640 H 0.8536837411922988 41.37581347054734 59.946618189020775 H 0.0 **** 0.06
33641 C 6.719603597024275 98.48406169654885 36.06804336653747 C 0.0 **** -0.24
33642 H 6.913353813196977 99.07433632557746 36.96336858908677 H 0.0 **** 0.06
33643 H 6.68003028465094 97.42715511931323 36.33231979393321 H 0.0 **** 0.06
33644 H 7.518775688567757 98.64750630048104 35.34495733636686 H 0.0 **** 0.06
33645 H 5.767732023968364 98.78699020948295 35.632394006191845 H 0.0 **** 0.06
33646 C 101.12177705779621 9.525955424187515 28.510763756679054 C 0.0 **** -0.24
33647 H 101.63568494216707 10.267361375396405 29.122269642937667 H 0.0 **** 0.06
33648 H 100.77887656241802 8.707089624500384 29.14397278897293 H 0.0 **** 0.06
33649 H 101.80609389168077 9.139383563863305 27.7548488822856 H 0.0 **** 0.06
33650 H 100.2644596615203 9.990309409992847 28.02100262452774 H 0.0 **** 0.06
33651 C 94.12845356659778 108.78427442036823 65.36327579737599 C 0.0 **** -0.24
33652 H 93.73548268876996 109.63954084361771 65.91183366006209 H 0.0 **** 0.06
33653 H 95.01237454675379 108.40046026374787 65.87242602005156 H 0.0 **** 0.06
33654 H 94.3965102550228 109.0930093714779 64.35301350798966 H 0.0 **** 0.06
33655 H 93.36847432962745 108.00347200296989 65.31500781234081 H 0.0 **** 0.06
33656 C 7.044281439189604 110.03065087944839 25.733128650591112 C 0.0 **** -0.24
33657 H 7.052011205744975 108.97477396968355 26.003670279335978 H 0.0 **** 0.06
33658 H 6.013070376364169 110.37245759100446 25.637068438754255 H 0.0 **** 0.06
33659 H 7.561973281649671 110.16575210830615 24.78375709431012 H 0.0 **** 0.06
33660 H 7.547984282770642 110.60746434447114 26.50803843350465 H 0.0 **** 0.06
33661 C 94.5733548088746 42.56281950568342 109.3465747435225 C 0.0 **** -0.24
33662 H 93.62544190340714 42.55991709430788 108.80846483904625 H 0.0 **** 0.06
33663 H 95.12738109384716 41.65375815127885 109.1092606275119 H 0.0 **** 0.06
33664 H 94.38261957870125 42.6031230089238 110.41868771773514 H 0.0 **** 0.06
33665 H 95.15712391227746 43.43383462293011 109.04768193839467 H 0.0 **** 0.06
33666 C 6.534176725835735 33.78027806040602 57.17392320426072 C 0.0 **** -0.24
33667 H 7.031153290440585 34.179506790935456 56.28928410602231 H 0.0 **** 0.06
33668 H 7.20912281222607 33.0994187991849 57.693448054744835 H 0.0 **** 0.06
33669 H 5.635037789493609 33.24199788750652 56.87334671880208 H 0.0 **** 0.06
33670 H 6.26171095594799 34.6006938440645 57.837987905208564 H 0.0 **** 0.06
33671 C 8.37342531444304 110.27063834092903 35.68679497047651 C 0.0 **** -0.24
33672 H 8.747921746250967 110.76686993697741 34.79214636692142 H 0.0 **** 0.06
33673 H 8.92040496286478 110.63268750338345 36.55786689165513 H 0.0 **** 0.06
33674 H 8.514738656122432 109.19381702030606 35.59039479740375 H 0.0 **** 0.06
33675 H 7.312514822382013 110.48834119108217 35.80589538192987 H 0.0 **** 0.06
33676 C 4.959281865300767 39.2841779998746 38.513583822261126 C 0.0 **** -0.24
33677 H 4.794149423820244 39.40772597579459 37.443862985102584 H 0.0 **** 0.06
33678 H 4.451405446664154 38.38163713547979 38.85693966672736 H 0.0 **** 0.06
33679 H 4.562794630319729 40.14955798978335 39.044761685617544 H 0.0 **** 0.06
33680 H 6.028398257715651 39.196430070920314 38.708706987162714 H 0.0 **** 0.06
33681 C 5.5142252861155825 103.19553664513796 7.559756574499943 C 0.0 **** -0.24
33682 H 5.983637376852556 102.71543102649457 8.418452364284065 H 0.0 **** 0.06
33683 H 4.854066622491711 103.99200460372299 7.90549490457947 H 0.0 **** 0.06
33684 H 4.935757734756221 102.4583674191054 7.003411032701038 H 0.0 **** 0.06
33685 H 6.284126380970303 103.61697793114513 6.913699227815314 H 0.0 **** 0.06
33686 C 104.84524642718088 74.41094516235549 116.61033167910111 C 0.0 **** -0.24
33687 H 103.86213303492647 74.02912916333588 116.3331887038909 H 0.0 **** 0.06
33688 H 104.79927097122251 74.83911320162224 117.61195136283872 H 0.0 **** 0.06
33689 H 105.14913117508107 75.17892152271372 115.89923047578947 H 0.0 **** 0.06
33690 H 105.56841457598293 73.59475672367347 116.59577478198258 H 0.0 **** 0.06
33691 C 5.719591438816185 88.28278994954081 111.73395864254917 C 0.0 **** -0.24
33692 H 5.94036129333397 88.39016139928881 110.67177286030608 H 0.0 **** 0.06
33693 H 5.38152100037564 87.26600322290355 111.93362009372352 H 0.0 **** 0.06
33694 H 4.936452879483401 88.98844243966053 112.01476328356765 H 0.0 **** 0.06
33695 H 6.618371269057899 88.4880136168623 112.31462341095114 H 0.0 **** 0.06
33696 C 99.77671623308396 85.90749388396654 53.25888136847834 C 0.0 **** -0.24
33697 H 99.09820427226333 86.72070529386758 52.998913371044665 H 0.0 **** 0.06
33698 H 99.77069238655986 85.16151236986633 52.46379024301578 H 0.0 **** 0.06
33699 H 99.44963341569931 85.44799325823652 54.19144051217077 H 0.0 **** 0.06
33700 H 100.78564040636252 86.3014162577607 53.381493550657126 H 0.0 **** 0.06
33701 C 104.76073105276322 89.92123749922368 68.54254541575332 C 0.0 **** -0.24
33702 H 103.8452721118104 89.49129907185636 68.94718273471224 H 0.0 **** 0.06
33703 H 105.61596640641693 89.33134018281109 68.87331611719182 H 0.0 **** 0.06
33704 H 104.8673378348588 90.94691737330558 68.89552608369439 H 0.0 **** 0.06
33705 H 104.71448678870877 89.91463957943904 67.45351442046143 H 0.0 **** 0.06
33706 C 106.29610455320642 81.30020275348528 108.44562690148976 C 0.0 **** -0.24
33707 H 107.23010586637855 81.0807755444857 107.92794955096795 H 0.0 **** 0.06
33708 H 105.69395329390665 81.97508467327643 107.83731873634017 H 0.0 **** 0.06
33709 H 106.51429785026207 81.77142370464364 109.40362378525703 H 0.0 **** 0.06
33710 H 105.74799972832673 80.37239424397086 108.61263618437269 H 0.0 **** 0.06
33711 C 94.49641700730479 3.676721797330913 51.528817988598576 C 0.0 **** -0.24
33712 H 95.2524511377978 4.270454769092396 52.04359772759034 H 0.0 **** 0.06
33713 H 93.95667882097518 4.307896828548053 50.82318967949874 H 0.0 **** 0.06
33714 H 93.79858627685877 3.2660878664636925 52.25859920208558 H 0.0 **** 0.06
33715 H 94.98061366104051 2.860749628185488 50.990901008680794 H 0.0 **** 0.06
33716 C 69.07315977588561 95.50910525556583 1.565690193602677 C 0.0 **** -0.24
33717 H 68.9097153770457 94.5047546506699 1.9557521498504542 H 0.0 **** 0.06
33718 H 68.15097776136787 95.8801221560316 1.1202081303625135 H 0.0 **** 0.06
33719 H 69.85742039517598 95.48118154202442 0.8091479791689977 H 0.0 **** 0.06
33720 H 69.3766956166603 96.16935950740017 2.3781862812118675 H 0.0 **** 0.06
33721 C 37.56750575015116 31.439456572196242 37.258620741261865 C 0.0 **** -0.24
33722 H 37.754403950383065 30.958983294127563 36.29894632644485 H 0.0 **** 0.06
33723 H 36.50521215389585 31.66735827602382 37.34928346050006 H 0.0 **** 0.06
33724 H 38.14397797276327 32.36311238410927 37.321257486999976 H 0.0 **** 0.06
33725 H 37.866299274886 30.76926037291289 38.06390266953029 H 0.0 **** 0.06
33726 C 106.95227953631237 96.24608295418483 7.051996465992673 C 0.0 **** -0.24
33727 H 106.77752386807529 96.35916171895661 8.12230962815579 H 0.0 **** 0.06
33728 H 106.04465461057993 96.50273585713856 6.506811378830193 H 0.0 **** 0.06
33729 H 107.22701341210842 95.21336569621127 6.835890089546069 H 0.0 **** 0.06
33730 H 107.76120684330189 96.90855851314916 6.744735521017333 H 0.0 **** 0.06
33731 C 87.28952167936103 31.203670849317348 88.12864511965563 C 0.0 **** -0.24
33732 H 86.8991052629747 32.21125903469459 87.98109269677659 H 0.0 **** 0.06
33733 H 88.3755661477015 31.244756271059487 88.21114944318586 H 0.0 **** 0.06
33734 H 87.01278591980525 30.57821028687698 87.280016246251 H 0.0 **** 0.06
33735 H 86.87074147208767 30.783457685739847 89.04331644440174 H 0.0 **** 0.06
33736 C 55.66989652071152 99.82745188054781 83.66863605077694 C 0.0 **** -0.24
33737 H 55.63110851101982 100.84545001554301 83.28152646442004 H 0.0 **** 0.06
33738 H 56.53300195029192 99.7220176166606 84.3271398821098 H 0.0 **** 0.06
33739 H 55.75842986881298 99.12579981966354 82.83791953695768 H 0.0 **** 0.06
33740 H 54.75884440263167 99.61553058750223 84.22709455129245 H 0.0 **** 0.06
33741 C 86.8712936701597 29.07589300449544 54.60608236061242 C 0.0 **** -0.24
33742 H 85.85645449235867 29.376844231369205 54.86210823722399 H 0.0 **** 0.06
33743 H 87.43608127274024 29.94728694075897 54.274996071299995 H 0.0 **** 0.06
33744 H 86.83961252816735 28.33674076211571 53.8058600078831 H 0.0 **** 0.06
33745 H 87.35321495459868 28.642018313521902 55.482589768394384 H 0.0 **** 0.06
33746 C 118.36694100431531 39.28911176284166 25.305481125126065 C 0.0 **** -0.24
33747 H 118.22665385752548 39.75070177823915 24.328763324219665 H 0.0 **** 0.06
33748 H 117.43775959653749 38.812994891846785 25.619011380894115 H 0.0 **** 0.06
33749 H 118.6479498173837 40.053085151199525 26.03156264837098 H 0.0 **** 0.06
33750 H 119.15672254968464 38.53982555511237 25.24306385188514 H 0.0 **** 0.06
33751 C 8.016937711219807 118.24900087565156 43.560610205447006 C 0.0 **** -0.24
33752 H 7.430432188770212 119.12761416957916 43.290875972417666 H 0.0 **** 0.06
33753 H 7.426233933386996 117.60526260704657 44.212178040772756 H 0.0 **** 0.06
33754 H 8.921446208977393 118.56292602203978 44.081822219378466 H 0.0 **** 0.06
33755 H 8.28909384398117 117.70190235558869 42.65846345002586 H 0.0 **** 0.06
33756 C 86.36572731814675 57.29136960103273 63.38584474209944 C 0.0 **** -0.24
33757 H 85.61182534349973 56.5790125650596 63.71961379941138 H 0.0 **** 0.06
33758 H 86.32113326052027 57.38593837207367 62.30036662129692 H 0.0 **** 0.06
33759 H 87.3545063324456 56.93859575144194 63.67999822885665 H 0.0 **** 0.06
33760 H 86.17595719287385 58.26278391981293 63.843504166865046 H 0.0 **** 0.06
33761 C 94.4865591630591 0.41073773223274834 93.20285090903636 C 0.0 **** -0.24
33762 H 93.49875558242971 0.8372860598511132 93.0267395369803 H 0.0 **** 0.06
33763 H 95.24231892185995 1.0346230718316232 92.72449026524711 H 0.0 **** 0.06
33764 H 94.52743892210287 -0.5951854263851395 92.78450291906361 H 0.0 **** 0.06
33765 H 94.67680964740438 0.3666072689797826 94.27552600616445 H 0.0 **** 0.06
33766 C 0.15160404655284765 105.7935236806529 117.81687570516112 C 0.0 **** -0.24
33767 H -0.7995749426042948 105.29699265401197 117.62581021605615 H 0.0 **** 0.06
33768 H 0.9490399454648042 105.26294953719645 117.29559584201053 H 0.0 **** 0.06
33769 H 0.35378264861545006 105.79231776724683 118.888099745781 H 0.0 **** 0.06
33770 H 0.1027754087290873 106.82164066706815 117.45709821936566 H 0.0 **** 0.06
33771 C 89.24426359992276 98.61067314363567 90.66275420465988 C 0.0 **** -0.24
33772 H 89.53657459031052 97.94933516016047 89.84588393212329 H 0.0 **** 0.06
33773 H 89.27745380364999 98.0614434933602 91.6041551940703 H 0.0 **** 0.06
33774 H 88.2317467506019 98.97527355305093 90.48959606648344 H 0.0 **** 0.06
33775 H 89.93206416236453 99.45460711335784 90.70931999473109 H 0.0 **** 0.06
33776 C 65.71122278858402 16.586035051954354 70.99614715889876 C 0.0 **** -0.24
33777 H 65.27258991348128 16.93406746325141 71.9307621320404 H 0.0 **** 0.06
33778 H 64.9606540734481 16.03975810274693 70.42392628142377 H 0.0 **** 0.06
33779 H 66.55315677587987 15.929828645451607 71.212396487912 H 0.0 **** 0.06
33780 H 66.05735234721286 17.442616949341982 70.41709846158261 H 0.0 **** 0.06
33781 C 61.9454281614274 93.33572487346413 78.8237973654663 C 0.0 **** -0.24
33782 H 62.05904764571264 93.57992443498233 79.88018781395391 H 0.0 **** 0.06
33783 H 62.749454008349716 92.66659180299752 78.51676485582851 H 0.0 **** 0.06
33784 H 61.98869979400507 94.25115572936494 78.23314220246485 H 0.0 **** 0.06
33785 H 60.984237692556604 92.84675217986995 78.66586970430589 H 0.0 **** 0.06
33786 C 113.11190556255457 61.41608916119038 103.18775521355542 C 0.0 **** -0.24
33787 H 113.6301667266861 60.4860131707952 102.95490639446984 H 0.0 **** 0.06
33788 H 113.50797665229692 61.82966993522941 104.11624555624417 H 0.0 **** 0.06
33789 H 112.04658202701594 61.21851283143686 103.30269812430876 H 0.0 **** 0.06
33790 H 113.26483619452017 62.12939762495011 102.37798128430626 H 0.0 **** 0.06
33791 C 23.940117930930747 43.184238447410024 22.784174473725443 C 0.0 **** -0.24
33792 H 24.748622225707862 42.637283184961035 23.26800217723917 H 0.0 **** 0.06
33793 H 23.617878353939894 42.644672957094 21.89339597904757 H 0.0 **** 0.06
33794 H 24.292159540489287 44.17646465122249 22.501458271919773 H 0.0 **** 0.06
33795 H 23.102112209863535 43.27925197728942 23.47446817304649 H 0.0 **** 0.06
33796 C 70.71584541321423 118.25944569868332 95.40935380985803 C 0.0 **** -0.24
33797 H 71.59122767717193 118.45424530785507 94.79108001952841 H 0.0 **** 0.06
33798 H 70.24411892000052 117.32948084164502 95.08953176572032 H 0.0 **** 0.06
33799 H 70.00737590248622 119.08046545307678 95.30529128026399 H 0.0 **** 0.06
33800 H 71.0201462234811 118.17156194313515 96.45278473152678 H 0.0 **** 0.06
33801 C 30.049151012115033 105.25883884949778 92.9373603379423 C 0.0 **** -0.24
33802 H 29.24046409001366 105.96230151482814 92.7397210260265 H 0.0 **** 0.06
33803 H 29.75604241873836 104.58443242605594 93.74213727306443 H 0.0 **** 0.06
33804 H 30.943490414506613 105.80815198834495 93.23064117384808 H 0.0 **** 0.06
33805 H 30.255610339649962 104.6815134343966 92.03555739750101 H 0.0 **** 0.06
33806 C 73.30353887488477 66.84234133553662 76.10594825003028 C 0.0 **** -0.24
33807 H 72.91206881998465 66.22766478850656 75.29535370894229 H 0.0 **** 0.06
33808 H 73.48198057585867 67.85359150025772 75.74163769634418 H 0.0 **** 0.06
33809 H 74.23982740018033 66.41467699655033 76.46527764192064 H 0.0 **** 0.06
33810 H 72.5807910351046 66.87126599313243 76.92173837582305 H 0.0 **** 0.06
33811 C 84.45882096007574 96.50863738580887 15.361973384089339 C 0.0 **** -0.24
33812 H 84.78058532253772 97.4558936132999 14.928211980920992 H 0.0 **** 0.06
33813 H 84.47997555715031 95.73369093677775 14.596259986810423 H 0.0 **** 0.06
33814 H 83.44437497476707 96.61221243052734 15.746942367198528 H 0.0 **** 0.06
33815 H 85.12949197515303 96.23499373352752 16.175984479231545 H 0.0 **** 0.06
33816 C 95.54646236688714 19.087540778403365 110.21021219954395 C 0.0 **** -0.24
33817 H 95.0755068008356 18.178463256136666 109.8380853389366 H 0.0 **** 0.06
33818 H 95.31578763027181 19.91707663099413 109.54083929869508 H 0.0 **** 0.06
33819 H 96.62594409000238 18.94508276372227 110.25465835142721 H 0.0 **** 0.06
33820 H 95.16751554469747 19.30976566113901 111.20813154454571 H 0.0 **** 0.06
33821 C 86.98703145185954 95.27569658321138 93.79715360107761 C 0.0 **** -0.24
33822 H 86.70085688619093 96.32727955956747 93.78652743551461 H 0.0 **** 0.06
33823 H 88.06735196225142 95.19444847753238 93.9239921113836 H 0.0 **** 0.06
33824 H 86.69551456446044 94.81015788250974 92.85526547811227 H 0.0 **** 0.06
33825 H 86.48534934459244 94.7708790811634 94.6225086160068 H 0.0 **** 0.06
33826 C 110.79019823256326 27.51284891573664 101.33423916977262 C 0.0 **** -0.24
33827 H 111.29314232641181 26.5800834717463 101.58787944534475 H 0.0 **** 0.06
33828 H 110.7782176794799 27.63638639345058 100.25086961820375 H 0.0 **** 0.06
33829 H 111.32287449012537 28.347856245758408 101.78914500839284 H 0.0 **** 0.06
33830 H 109.76737836703168 27.487567187140165 101.70934567609348 H 0.0 **** 0.06
33831 C 21.320359818495433 38.385676511100826 34.9000855089991 C 0.0 **** -0.24
33832 H 21.159787599952153 37.317295919875505 35.04489589988037 H 0.0 **** 0.06
33833 H 22.266812068554316 38.54391399380728 34.3841944939299 H 0.0 **** 0.06
33834 H 21.345037054978036 38.884184150153146 35.86910549742635 H 0.0 **** 0.06
33835 H 20.5070235973337 38.79684475123719 34.301902045326415 H 0.0 **** 0.06
33836 C 5.453784918542482 79.68581403979306 15.462089581863836 C 0.0 **** -0.24
33837 H 5.73266895482314 80.26194345143534 14.579483667967793 H 0.0 **** 0.06
33838 H 5.488885472992479 78.62217158545764 15.227312612508115 H 0.0 **** 0.06
33839 H 4.443310551885162 79.95721446579424 15.768576065112086 H 0.0 **** 0.06
33840 H 6.150358134411505 79.90330671601043 16.272688340136995 H 0.0 **** 0.06
33841 C 20.719756200989707 31.837609324291208 70.84542090042993 C 0.0 **** -0.24
33842 H 21.72783403003882 31.447175491091087 70.9811818021675 H 0.0 **** 0.06
33843 H 20.21777721045305 31.891765586856337 71.81142905807434 H 0.0 **** 0.06
33844 H 20.161272112922575 31.177246280166486 70.18139470357573 H 0.0 **** 0.06
33845 H 20.772221029447792 32.83416259269748 70.40626872781223 H 0.0 **** 0.06
33846 C 106.87211134857037 9.37071665687671 118.37107352035099 C 0.0 **** -0.24
33847 H 106.49529300393769 10.393438821453717 118.37492975617465 H 0.0 **** 0.06
33848 H 106.31123381133207 8.78010709917924 117.64663213928606 H 0.0 **** 0.06
33849 H 106.75530374761087 8.937076902400293 119.36390033070006 H 0.0 **** 0.06
33850 H 107.92741669912894 9.374356705979135 118.09788686491237 H 0.0 **** 0.06
33851 C 90.96893837387444 68.80633474184413 27.07260817648438 C 0.0 **** -0.24
33852 H 90.61890625534093 69.83670175434122 27.021267847709822 H 0.0 **** 0.06
33853 H 90.99753477826508 68.48437502549575 28.11391062821869 H 0.0 **** 0.06
33854 H 91.9694277523665 68.74049631087621 26.644524188103418 H 0.0 **** 0.06
33855 H 90.291505230855 68.16373244350359 26.511340753390897 H 0.0 **** 0.06
33856 C 96.02015123083476 11.85877936469322 57.0154598515117 C 0.0 **** -0.24
33857 H 95.10018740903433 11.444729671840207 56.60158542143507 H 0.0 **** 0.06
33858 H 96.02890313843932 11.714334724802427 58.09566663768867 H 0.0 **** 0.06
33859 H 96.07174736922087 12.92452846054465 56.79114910014068 H 0.0 **** 0.06
33860 H 96.87735239122406 11.351277429773205 56.57376823135308 H 0.0 **** 0.06
33861 C 91.93373975847976 6.134674539844317 101.17400195458089 C 0.0 **** -0.24
33862 H 91.81117371466132 6.725218726026256 100.26670341984709 H 0.0 **** 0.06
33863 H 91.29836545370063 6.540853845653723 101.96100349887197 H 0.0 **** 0.06
33864 H 92.97578726209241 6.170864162546078 101.4935077420509 H 0.0 **** 0.06
33865 H 91.65221446889316 5.100486193173502 100.97563475207474 H 0.0 **** 0.06
33866 C 99.90825344369014 86.28346633435245 67.86077868107967 C 0.0 **** -0.24
33867 H 99.74189700032451 85.44786226239202 67.18086769949502 H 0.0 **** 0.06
33868 H 99.81252520982159 85.93963216984525 68.89012734600092 H 0.0 **** 0.06
33869 H 99.17014345155931 87.06110689291319 67.66640449512636 H 0.0 **** 0.06
33870 H 100.90961123146306 86.68557501380931 67.70358192680658 H 0.0 **** 0.06
33871 C 59.8009662457425 99.48852533628181 105.57209928490411 C 0.0 **** -0.24
33872 H 59.71616999714038 100.549511119588 105.33606885951804 H 0.0 **** 0.06
33873 H 59.55596380278135 99.33039131170577 106.62220736617792 H 0.0 **** 0.06
33874 H 60.82175225512435 99.15533867949085 105.3830432548836 H 0.0 **** 0.06
33875 H 59.11106487201076 98.92155430682408 104.9478281428336 H 0.0 **** 0.06
33876 C 95.85210315275114 7.934552951493288 61.66089631708416 C 0.0 **** -0.24
33877 H 96.68330530816405 8.573105079932844 61.959024966498454 H 0.0 **** 0.06
33878 H 95.2880300313411 8.420615015364262 60.86486632219515 H 0.0 **** 0.06
33879 H 95.1991086565136 7.765344536411433 62.518424394282654 H 0.0 **** 0.06
33880 H 96.23739763294316 6.979848517699182 61.30413011396866 H 0.0 **** 0.06
33881 C 81.54713370239355 77.60295102986785 19.214291740384517 C 0.0 **** -0.24
33882 H 81.45192011399192 78.14576316609254 20.155638131745814 H 0.0 **** 0.06
33883 H 82.58685968796257 77.62685986967455 18.88515663341011 H 0.0 **** 0.06
33884 H 80.91616501390487 78.07167089935774 18.459811981713592 H 0.0 **** 0.06
33885 H 81.23494228318376 76.56820581969342 19.358199634519195 H 0.0 **** 0.06
33886 C 52.02847614625489 53.72380011766174 10.697532029095328 C 0.0 **** -0.24
33887 H 51.54693539158745 54.690846069684625 10.840937640939273 H 0.0 **** 0.06
33888 H 52.399861031710884 53.651508578219136 9.674385470952473 H 0.0 **** 0.06
33889 H 51.30677306949656 52.92807152417146 10.87853249176078 H 0.0 **** 0.06
33890 H 52.860982945327464 53.62574481990751 11.394364983571563 H 0.0 **** 0.06
33891 C 111.8941292704205 24.037229175717357 49.835727135122 C 0.0 **** -0.24
33892 H 111.49306942553936 24.682157683010956 50.61698428512659 H 0.0 **** 0.06
33893 H 111.19619347391856 23.221674250720753 49.64398926588785 H 0.0 **** 0.06
33894 H 112.85135083365438 23.628971034629018 50.15744229094747 H 0.0 **** 0.06
33895 H 112.03398275127799 24.61725777408182 48.92249194703646 H 0.0 **** 0.06
33896 C 74.43282390681429 15.550524800656916 10.298979233711748 C 0.0 **** -0.24
33897 H 73.427267702155 15.908702422462525 10.521132603687803 H 0.0 **** 0.06
33898 H 74.83440220837332 15.033187875083158 11.16960249967444 H 0.0 **** 0.06
33899 H 75.07297988020972 16.397190861389888 10.050100731778471 H 0.0 **** 0.06
33900 H 74.39460321708759 14.862544779571124 9.453814577586897 H 0.0 **** 0.06
33901 C 118.42652737225886 84.81470666062583 33.37879900935201 C 0.0 **** -0.24
33902 H 118.16537495311972 85.6403111445102 34.04074478744157 H 0.0 **** 0.06
33903 H 117.98420803167946 84.98292290607108 32.39710076656895 H 0.0 **** 0.06
33904 H 118.04496496038735 83.8821132603261 33.79469593865246 H 0.0 **** 0.06
33905 H 119.51052924308627 84.75416732319417 33.28451500584072 H 0.0 **** 0.06
33906 C 118.02471863300946 68.8701797326591 53.94594375123468 C 0.0 **** -0.24
33907 H 118.83556949217518 69.25834648174933 53.32989342616136 H 0.0 **** 0.06
33908 H 118.211740907885 67.82045285437064 54.17280876546221 H 0.0 **** 0.06
33909 H 117.08188788938992 68.96218532144499 53.40515929173294 H 0.0 **** 0.06
33910 H 117.96841842339333 69.43862319867327 54.87323322493061 H 0.0 **** 0.06
33911 C 41.8602070027757 0.00015941117584361564 50.96592999886679 C 0.0 **** -0.24
33912 H 41.935432634737836 0.7463270826972064 51.75724947247155 H 0.0 **** 0.06
33913 H 42.81106356124253 -0.5248740484984467 50.869746343602934 H 0.0 **** 0.06
33914 H 41.61898062643178 0.4932433433549619 50.02436713513637 H 0.0 **** 0.06
33915 H 41.074841203996534 -0.7139411285008066 51.21367089430318 H 0.0 **** 0.06
33916 C 51.81576008692185 87.42862632219479 27.09437230368519 C 0.0 **** -0.24
33917 H 51.169632642104105 86.8721479283052 26.415674526687837 H 0.0 **** 0.06
33918 H 52.59477552688642 87.93404191552804 26.52363542166745 H 0.0 **** 0.06
33919 H 52.273954352004196 86.74185699809473 27.806083257341413 H 0.0 **** 0.06
33920 H 51.223022196276034 88.16804076961438 27.634033964054254 H 0.0 **** 0.06
33921 C 65.69053728001387 86.05971958922203 16.966526052238265 C 0.0 **** -0.24
33922 H 65.48667580379919 86.99857687918089 17.480435576413583 H 0.0 **** 0.06
33923 H 66.76820892187698 85.92267174391682 16.87461675399004 H 0.0 **** 0.06
33924 H 65.24190466798649 86.08390133181908 15.973726194695615 H 0.0 **** 0.06
33925 H 65.2655394740384 85.23352523709912 17.536363148983355 H 0.0 **** 0.06
33926 C 52.2707982111982 67.82446143087506 81.18902061571308 C 0.0 **** -0.24
33927 H 52.301737560876724 67.0785835279867 80.39374734421622 H 0.0 **** 0.06
33928 H 53.15463786651689 67.72119787780653 81.81809822666725 H 0.0 **** 0.06
33929 H 51.3754069086249 67.67540391512227 81.79153432923351 H 0.0 **** 0.06
33930 H 52.25089515279445 68.82233916562765 80.74914841356988 H 0.0 **** 0.06
33931 C 12.549781840665837 77.87911741472246 42.27435994015775 C 0.0 **** -0.24
33932 H 13.260162627049901 77.59318108034842 43.05077876145759 H 0.0 **** 0.06
33933 H 12.516972233904436 77.1034142424667 41.50910984713178 H 0.0 **** 0.06
33934 H 12.864161791996185 78.82057657427825 41.82445168645921 H 0.0 **** 0.06
33935 H 11.56030085261433 77.99948757002667 42.714791474420565 H 0.0 **** 0.06
33936 C 101.5257226444854 22.358897147250104 27.308050972694502 C 0.0 **** -0.24
33937 H 101.2592869171003 21.818022491064994 28.21584839007315 H 0.0 **** 0.06
33938 H 100.66328926880789 22.92652390644446 26.95729727322714 H 0.0 **** 0.06
33939 H 101.83071056360316 21.64867241882422 26.53926049708035 H 0.0 **** 0.06
33940 H 102.34891000820957 23.041148639905146 27.519963758702318 H 0.0 **** 0.06
33941 C 100.81282008223278 35.14299089491553 34.211877008202464 C 0.0 **** -0.24
33942 H 101.24019006187507 35.99357293255545 33.681632140562385 H 0.0 **** 0.06
33943 H 100.8399269206291 35.33361619125145 35.28545507947507 H 0.0 **** 0.06
33944 H 101.39057212519776 34.24682866486617 33.98692730580038 H 0.0 **** 0.06
33945 H 99.77965557918952 34.99894803629323 33.895259964193116 H 0.0 **** 0.06
33946 C 0.10185998487961001 75.06867352656428 55.707836436042896 C 0.0 **** -0.24
33947 H 1.0317159228630146 75.50544573982029 55.34077151429614 H 0.0 **** 0.06
33948 H -0.5396338274510697 75.85856213394285 56.099243228563694 H 0.0 **** 0.06
33949 H 0.3248991507746837 74.35515668950376 56.5008218067195 H 0.0 **** 0.06
33950 H -0.40655328706765204 74.5577817699986 54.89050352129044 H 0.0 **** 0.06
33951 C 98.33271308215805 29.04400531996572 116.81013836551818 C 0.0 **** -0.24
33952 H 98.01763265417907 30.085219825798276 116.74390221446077 H 0.0 **** 0.06
33953 H 98.24354709707816 28.574709965088346 115.83048441897344 H 0.0 **** 0.06
33954 H 97.69780944721569 28.517725135641342 117.52429957147527 H 0.0 **** 0.06
33955 H 99.36934343187497 28.998221044199454 117.14314415742496 H 0.0 **** 0.06
33956 C 49.44655324965902 20.12794193439487 73.36733307361311 C 0.0 **** -0.24
33957 H 50.52215827495692 20.031335157490844 73.2194800031908 H 0.0 **** 0.06
33958 H 49.24114795443302 20.3140370308696 74.42142075426733 H 0.0 **** 0.06
33959 H 48.953478236126244 19.20656713980827 73.05765569392398 H 0.0 **** 0.06
33960 H 49.070837718903135 20.95933217872215 72.77165227116569 H 0.0 **** 0.06
33961 C 86.91914140876506 9.610270247793068 35.96196481530242 C 0.0 **** -0.24
33962 H 86.72084122071846 9.124481599730302 36.91723230624251 H 0.0 **** 0.06
33963 H 87.43949451135168 8.914934844868299 35.30193072469828 H 0.0 **** 0.06
33964 H 87.54019072256301 10.491113330426998 36.12419850895927 H 0.0 **** 0.06
33965 H 85.97640615163348 9.909879079823014 35.50330873770474 H 0.0 **** 0.06
33966 C 25.866597198910853 28.48109880669906 86.19906073250655 C 0.0 **** -0.24
33967 H 26.25754605618812 27.67019687220705 86.81287223297502 H 0.0 **** 0.06
33968 H 26.584307753766097 29.30220729621299 86.18142363887773 H 0.0 **** 0.06
33969 H 24.923255842792713 28.83200561022393 86.61804772297242 H 0.0 **** 0.06
33970 H 25.701811676768983 28.120753405610422 85.18354337512571 H 0.0 **** 0.06
33971 C 10.694443254066982 3.690511613364082 117.48885847670796 C 0.0 **** -0.24
33972 H 11.651223306748335 3.7099000056498 116.96742241479252 H 0.0 **** 0.06
33973 H 9.88442876219574 3.6378043349243097 116.76035032701316 H 0.0 **** 0.06
33974 H 10.587920527663442 4.597352987443113 118.08561915025709 H 0.0 **** 0.06
33975 H 10.653591769167917 2.8191293350976494 118.1418198887082 H 0.0 **** 0.06
33976 C 77.09292101757583 105.18829821264265 77.86913363625587 C 0.0 **** -0.24
33977 H 77.72393003371366 104.87651021608153 77.03621437447302 H 0.0 **** 0.06
33978 H 76.06999811331545 104.85481821268587 77.69430116394491 H 0.0 **** 0.06
33979 H 77.11260130274624 106.27470112337906 77.95263180096018 H 0.0 **** 0.06
33980 H 77.46751976033823 104.74547253964894 78.79264695199532 H 0.0 **** 0.06
33981 C 5.746422578901706 72.53976442826342 18.32235970286723 C 0.0 **** -0.24
33982 H 6.353476324283159 71.73405255547596 17.908177661167016 H 0.0 **** 0.06
33983 H 4.7083185604632884 72.4055524315333 18.01608231773966 H 0.0 **** 0.06
33984 H 6.11400821746213 73.49720897846737 17.953454173504937 H 0.0 **** 0.06
33985 H 5.810792847408846 72.5197487376418 19.4103263459711 H 0.0 **** 0.06
33986 C 21.97615979685346 12.919376905059579 61.655330154920286 C 0.0 **** -0.24
33987 H 22.275791829659724 13.132227402404311 62.68161612592001 H 0.0 **** 0.06
33988 H 22.47559666450945 13.61506309463087 60.97965921568031 H 0.0 **** 0.06
33989 H 20.896557756655508 13.032739925205561 61.56048402784139 H 0.0 **** 0.06
33990 H 22.259304561420922 11.898783343391358 61.398872826696525 H 0.0 **** 0.06
33991 C 102.47638372011068 78.69689997059925 78.53765986968963 C 0.0 **** -0.24
33992 H 101.98075239623839 78.42832126438907 79.4705004944575 H 0.0 **** 0.06
33993 H 103.55702513183007 78.66257486108736 78.67826759483975 H 0.0 **** 0.06
33994 H 102.17879666265102 79.7047502348654 78.24598465144601 H 0.0 **** 0.06
33995 H 102.18861326563282 77.99355859379307 77.75702834891686 H 0.0 **** 0.06
33996 C 26.683717558170635 74.98529608635027 8.560290198646591 C 0.0 **** -0.24
33997 H 26.786252437980686 73.92900658532761 8.307981332098933 H 0.0 **** 0.06
33998 H 26.76664639654429 75.58440805462004 7.65385587261342 H 0.0 **** 0.06
33999 H 27.472165794220707 75.2688862327974 9.256901663218127 H 0.0 **** 0.06
34000 H 25.712190928375044 75.15525793270632 9.022013515089736 H 0.0 **** 0.06
34001 C 65.30206563893927 40.25592085642512 24.633745396592303 C 0.0 **** -0.24
34002 H 64.90435527282904 41.25025215927187 24.43049850611834 H 0.0 **** 0.06
34003 H 64.48015819143649 39.57523905290202 24.85613022461348 H 0.0 **** 0.06
34004 H 65.97711870257297 40.301999963689525 25.48893935662244 H 0.0 **** 0.06
34005 H 65.84631673442897 39.89583198558341 23.760744644253123 H 0.0 **** 0.06
34006 C 13.649357354701493 96.1451300085871 38.482490575122334 C 0.0 **** -0.24
34007 H 14.150403091112281 96.8161844156821 39.18026828390384 H 0.0 **** 0.06
34008 H 13.651093346265554 96.58966194718246 37.486898312756736 H 0.0 **** 0.06
34009 H 12.621658950621281 95.98472576606048 38.80719812528787 H 0.0 **** 0.06
34010 H 14.175506036707446 95.19063933791836 38.45553277357617 H 0.0 **** 0.06
34011 C 96.39819820573288 75.7684035068769 0.5030076403213428 C 0.0 **** -0.24
34012 H 96.30936128173587 74.85217064063286 -0.07929881553481266 H 0.0 **** 0.06
34013 H 95.4167424380193 76.05680945419664 0.879041068498637 H 0.0 **** 0.06
34014 H 96.79390679595576 76.5630260049295 -0.12870377001573274 H 0.0 **** 0.06
34015 H 97.07471136151048 75.60098479088856 1.3419358700471946 H 0.0 **** 0.06
34016 C 70.97520904709404 87.62736157011054 111.87640898999364 C 0.0 **** -0.24
34017 H 71.17757506621172 86.57570895013689 111.67428696877005 H 0.0 **** 0.06
34018 H 71.88557475352229 88.1112602550387 112.23067997635422 H 0.0 **** 0.06
34019 H 70.19951730784356 87.70795286581617 112.63844113091261 H 0.0 **** 0.06
34020 H 70.63702710817961 88.1148000392831 110.961440496335 H 0.0 **** 0.06
34021 C 42.86968007819209 43.46054448539971 84.59259221467087 C 0.0 **** -0.24
34022 H 43.67257048338962 43.9264506659177 84.02013341788276 H 0.0 **** 0.06
34023 H 42.67484831269901 42.46316885917061 84.19827759614256 H 0.0 **** 0.06
34024 H 41.9676309698334 44.06631959488366 84.51215320103341 H 0.0 **** 0.06
34025 H 43.16572072337363 43.38580659338599 85.63853566517568 H 0.0 **** 0.06
34026 C 7.972576469235179 27.80341582638698 53.162230620069664 C 0.0 **** -0.24
34027 H 7.486941402685659 28.22139043997562 52.27995661304203 H 0.0 **** 0.06
34028 H 8.872018133491622 28.37826681397199 53.38676949687439 H 0.0 **** 0.06
34029 H 8.24244516614985 26.765069844250036 52.971505598132154 H 0.0 **** 0.06
34030 H 7.289441644733898 27.851202529718847 54.00993444801321 H 0.0 **** 0.06
34031 C 3.2102752859207726 65.3285473099267 20.958238520786807 C 0.0 **** -0.24
34032 H 2.7258970930717794 65.82551604117734 20.117183548335902 H 0.0 **** 0.06
34033 H 3.6477795652549503 66.07638525294252 21.619769319028308 H 0.0 **** 0.06
34034 H 3.9929673589881247 64.66804568598829 20.587451263341165 H 0.0 **** 0.06
34035 H 2.471458484491137 64.7441573609147 21.508588242506306 H 0.0 **** 0.06
34036 C 100.63789018211514 58.929950834618865 29.500583363217643 C 0.0 **** -0.24
34037 H 101.71123727141818 59.00750436412977 29.329221152773435 H 0.0 **** 0.06
34038 H 100.30677342119606 59.764044788324156 30.119383448661196 H 0.0 **** 0.06
34039 H 100.41864483620424 57.99051452028465 30.00763901707949 H 0.0 **** 0.06
34040 H 100.1147217906331 58.95644671828222 28.54401739633233 H 0.0 **** 0.06
34041 C 48.50690158216895 70.26835738900311 59.35592643276709 C 0.0 **** -0.24
34042 H 48.14240158261049 70.63314548216297 60.31534128953297 H 0.0 **** 0.06
34043 H 47.73010307012299 69.67463167633719 58.873673965767125 H 0.0 **** 0.06
34044 H 49.39131319446119 69.65130565647033 59.51431463947304 H 0.0 **** 0.06
34045 H 48.764945149257414 71.11528041500173 58.71948670848275 H 0.0 **** 0.06
34046 C 107.0134528484781 6.340755653226381 49.92423188088952 C 0.0 **** -0.24
34047 H 105.92845543549663 6.4275363511614785 49.99810621190886 H 0.0 **** 0.06
34048 H 107.437361388776 7.311891996931308 49.66905094502687 H 0.0 **** 0.06
34049 H 107.26723981646845 5.617907526569951 49.149650536485126 H 0.0 **** 0.06
34050 H 107.41624754981899 6.006976721643468 50.880269326123994 H 0.0 **** 0.06
34051 C 12.960489618535746 79.40177743574282 98.25891238776217 C 0.0 **** -0.24
34052 H 13.394775687752997 79.72353834544055 97.3122122703603 H 0.0 **** 0.06
34053 H 11.911121158843741 79.14572753349574 98.10819433447767 H 0.0 **** 0.06
34054 H 13.036057214576829 80.20985614050483 98.98588203013173 H 0.0 **** 0.06
34055 H 13.498554225807936 78.52891183801171 98.62761640440726 H 0.0 **** 0.06
34056 C 58.08054714786579 63.52056272249513 18.891414108862392 C 0.0 **** -0.24
34057 H 58.25219304137564 62.74446172948899 18.14671591247584 H 0.0 **** 0.06
34058 H 57.02924316776751 63.81066961155307 18.87926551582791 H 0.0 **** 0.06
34059 H 58.69962984273962 64.38846390215147 18.66004677684586 H 0.0 **** 0.06
34060 H 58.34196903048534 63.14083807486787 19.87890655712657 H 0.0 **** 0.06
34061 C 24.63167467630595 51.17560077954178 81.85727591846924 C 0.0 **** -0.24
34062 H 25.184894572206872 52.03440362186291 81.47708518187065 H 0.0 **** 0.06
34063 H 25.3080359728105 50.328354447745056 81.96862040568155 H 0.0 **** 0.06
34064 H 23.83625396059699 50.91753276419003 81.15907660882024 H 0.0 **** 0.06
34065 H 24.197946947610404 51.42361977134078 82.82591537367122 H 0.0 **** 0.06
34066 C 17.62744774529682 114.64127466244454 106.6688339668749 C 0.0 **** -0.24
34067 H 16.937712330968594 115.36748506180926 106.23827838827876 H 0.0 **** 0.06
34068 H 17.077434955117297 113.9600692842618 107.31860374983017 H 0.0 **** 0.06
34069 H 18.388140739380958 115.1625255227905 107.24954667396614 H 0.0 **** 0.06
34070 H 18.104313717056414 114.07537156467399 105.8691952749333 H 0.0 **** 0.06
34071 C 36.24782780899781 113.50384739123882 58.71324181439544 C 0.0 **** -0.24
34072 H 35.22520538057403 113.22503073393082 58.46177386527081 H 0.0 **** 0.06
34073 H 36.60430479109866 112.87797166867 59.532051546440265 H 0.0 **** 0.06
34074 H 36.275358698707684 114.55043531889825 59.01798987450214 H 0.0 **** 0.06
34075 H 36.887386422395124 113.36172594486774 57.842180486673065 H 0.0 **** 0.06
34076 C 1.1323562405836896 19.573318025992933 29.69594548967129 C 0.0 **** -0.24
34077 H 1.7007952927411338 20.434036727782825 29.34346295745982 H 0.0 **** 0.06
34078 H 0.27325315090041613 19.917614881880297 30.271665145896947 H 0.0 **** 0.06
34079 H 1.7681532546042291 18.953065154609476 30.327351914883366 H 0.0 **** 0.06
34080 H 0.7891022778622556 18.990887618849655 28.84147603303242 H 0.0 **** 0.06
34081 C 57.09465910310404 92.32881821355582 64.60712722871074 C 0.0 **** -0.24
34082 H 57.792278849535414 92.4310403869923 65.4380260501697 H 0.0 **** 0.06
34083 H 57.64345302931077 92.36623617398584 63.665705040834204 H 0.0 **** 0.06
34084 H 56.37113226615036 93.14328389432154 64.63890970544213 H 0.0 **** 0.06
34085 H 56.57256694069542 91.37590337694493 64.68684292166498 H 0.0 **** 0.06
34086 C 78.97176405761786 58.787099531113455 54.919266970088245 C 0.0 **** -0.24
34087 H 78.85681206886647 59.69486285025968 54.327341013627574 H 0.0 **** 0.06
34088 H 79.79867593467566 58.19717010894104 54.52211375370268 H 0.0 **** 0.06
34089 H 78.05188297599506 58.20277927170949 54.87028420699852 H 0.0 **** 0.06
34090 H 79.17846595468654 59.052563982549 55.95611678028311 H 0.0 **** 0.06
34091 C 9.471500270063615 87.33100920829509 75.94823566592217 C 0.0 **** -0.24
34092 H 9.76185598815627 86.75431465080956 76.82576255741151 H 0.0 **** 0.06
34093 H 8.409409068312755 87.18096066176898 75.74965471919981 H 0.0 **** 0.06
34094 H 10.052423485430495 86.99934771716224 75.08699034228172 H 0.0 **** 0.06
34095 H 9.66095664780022 88.38895070203046 76.12854822592175 H 0.0 **** 0.06
34096 C 20.454369983268364 111.37566798641339 3.6554367997077293 C 0.0 **** -0.24
34097 H 20.018985556150398 112.12517036791947 2.994103159612365 H 0.0 **** 0.06
34098 H 21.491449484870117 111.63697082567512 3.86737674311766 H 0.0 **** 0.06
34099 H 20.416636245709952 110.3989042968326 3.1722800161072513 H 0.0 **** 0.06
34100 H 19.889268090818746 111.34240993459758 4.587695029608739 H 0.0 **** 0.06
34101 C 96.34243924354953 1.58601811941503 15.215477316120342 C 0.0 **** -0.24
34102 H 95.87923148007212 1.9358849614242217 14.293443546624871 H 0.0 **** 0.06
34103 H 95.72458767032256 0.8048902580395776 15.658307148946989 H 0.0 **** 0.06
34104 H 96.43395987899203 2.4173231648183986 15.914936749011417 H 0.0 **** 0.06
34105 H 97.33200774684406 1.1858399240145445 14.996212359639287 H 0.0 **** 0.06
34106 C 43.90416153915566 117.89818581235608 36.576546441531946 C 0.0 **** -0.24
34107 H 44.73896689860819 117.24914554862232 36.843067323615685 H 0.0 **** 0.06
34108 H 44.123919598079326 118.40349184694622 35.636442332184856 H 0.0 **** 0.06
34109 H 43.755545207770325 118.63825603644503 37.36293872570354 H 0.0 **** 0.06
34110 H 43.000203891181236 117.29980657395234 36.46510408654956 H 0.0 **** 0.06
34111 C 52.08654964435755 19.313578388175216 118.11007827151633 C 0.0 **** -0.24
34112 H 51.584992889792176 18.396427650765673 118.41547275799536 H 0.0 **** 0.06
34113 H 52.73708583283195 19.10576733674867 117.25971782723997 H 0.0 **** 0.06
34114 H 52.68190258857595 19.69605935831001 118.93916918935687 H 0.0 **** 0.06
34115 H 51.34274921241206 20.057411875077264 117.82501124052416 H 0.0 **** 0.06
34116 C 42.02622381566184 105.66739261819899 23.85317807473964 C 0.0 **** -0.24
34117 H 40.98174846301836 105.89510675277847 23.638979305571404 H 0.0 **** 0.06
34118 H 42.51826849445078 105.32815320501942 22.942047908542037 H 0.0 **** 0.06
34119 H 42.08005427424743 104.88468893854 24.609419280337683 H 0.0 **** 0.06
34120 H 42.52476124435694 106.56476139206046 24.223332697178627 H 0.0 **** 0.06
34121 C 23.627462253279987 7.383447967772412 10.259368572809365 C 0.0 **** -0.24
34122 H 23.59782657501927 6.319281626798556 10.024278540247462 H 0.0 **** 0.06
34123 H 22.655982675024234 7.69695456211997 10.643146746095155 H 0.0 **** 0.06
34124 H 23.860764852418413 7.947886811407955 9.356162450570388 H 0.0 **** 0.06
34125 H 24.39397392422302 7.567757316174493 11.011975031273483 H 0.0 **** 0.06
34126 C 9.194134292759948 23.021937766638644 61.04469138136138 C 0.0 **** -0.24
34127 H 8.725950192032034 23.99023285635036 60.86537075852251 H 0.0 **** 0.06
34128 H 8.42301790703771 22.27740999582943 61.24624676611135 H 0.0 **** 0.06
34129 H 9.862403021961878 23.09431349906157 61.901818054370274 H 0.0 **** 0.06
34130 H 9.76424151950862 22.725806173918897 60.16329391971109 H 0.0 **** 0.06
34131 C 99.79327666584487 109.41038071771645 24.0060803995665 C 0.0 **** -0.24
34132 H 99.51664049225161 108.63849623641929 24.724835151447195 H 0.0 **** 0.06
34133 H 100.69700667140316 109.9162409437448 24.34652878462913 H 0.0 **** 0.06
34134 H 98.98233604121293 110.1333110334644 23.91941661663897 H 0.0 **** 0.06
34135 H 99.9773186521239 108.95142606918694 23.03441596225828 H 0.0 **** 0.06
34136 C 76.64531115962427 102.34599509121082 23.27060961767208 C 0.0 **** -0.24
34137 H 76.87424146362716 101.51723442425993 22.601259041296913 H 0.0 **** 0.06
34138 H 76.9438826020388 103.28457278502495 22.801170896559455 H 0.0 **** 0.06
34139 H 77.1891972985313 102.21850933222092 24.206580139945032 H 0.0 **** 0.06
34140 H 75.57445868387492 102.36499451326392 23.471712906454627 H 0.0 **** 0.06
34141 C 30.3947317156924 69.86055715444311 97.958223107945 C 0.0 **** -0.24
34142 H 31.412462224274172 69.60980758668907 97.6576172383975 H 0.0 **** 0.06
34143 H 30.027366217897672 69.10786177115605 98.65586114183273 H 0.0 **** 0.06
34144 H 29.752613086575472 69.88573196047446 97.07868892870204 H 0.0 **** 0.06
34145 H 30.389772316958826 70.83773533249561 98.44066145151336 H 0.0 **** 0.06
34146 C 70.26657138926558 85.80707114664659 23.01083920426236 C 0.0 **** -0.24
34147 H 69.73155336888615 86.10856744243671 22.110788527938 H 0.0 **** 0.06
34148 H 71.06171477441805 85.11003163464983 22.745355656681063 H 0.0 **** 0.06
34149 H 69.57382611292621 85.32221202373381 23.698717235356405 H 0.0 **** 0.06
34150 H 70.6973576652255 86.6862226242917 23.488766356161484 H 0.0 **** 0.06
34151 C 71.9799670081274 66.69928072879554 2.7757440713934898 C 0.0 **** -0.24
34152 H 72.16890555593375 65.71260680836554 2.3526301651297388 H 0.0 **** 0.06
34153 H 71.90564822495952 66.61972476038238 3.861308101912229 H 0.0 **** 0.06
34154 H 71.0466323063531 67.09357615409567 2.3751882596404386 H 0.0 **** 0.06
34155 H 72.79955729289782 67.36872512643015 2.51650195762231 H 0.0 **** 0.06
34156 C 30.85867079291623 71.06234399982105 11.76785040149744 C 0.0 **** -0.24
34157 H 30.36200064337646 70.98351223617215 10.800970954890829 H 0.0 **** 0.06
34158 H 30.315824434668798 71.76694723946366 12.398687729076926 H 0.0 **** 0.06
34159 H 31.879695671993545 71.41380176508835 11.623738890960198 H 0.0 **** 0.06
34160 H 30.87523626376992 70.08275686356035 12.247149143544448 H 0.0 **** 0.06
34161 C 108.32559259195497 53.88349323121689 34.08205959024998 C 0.0 **** -0.24
34162 H 108.52405502213432 53.773230363647585 35.14812024933781 H 0.0 **** 0.06
34163 H 109.22222794680013 53.62582152750687 33.517899211047585 H 0.0 **** 0.06
34164 H 108.0455870559764 54.914843128362314 33.868991942634814 H 0.0 **** 0.06
34165 H 107.51085164682385 53.21852715029641 33.79391392231259 H 0.0 **** 0.06
34166 C 78.08656323647736 74.89421604126846 92.89933129979664 C 0.0 **** -0.24
34167 H 77.62317601817568 75.20280657747901 91.96194996461281 H 0.0 **** 0.06
34168 H 78.39356150525126 73.85031644113457 92.82641815553072 H 0.0 **** 0.06
34169 H 77.36877918778146 75.0067760453797 93.71203043811599 H 0.0 **** 0.06
34170 H 78.9587459353827 75.51715103740509 93.09592442882496 H 0.0 **** 0.06
34171 C 105.12530199179216 65.16950885973824 59.74594360515626 C 0.0 **** -0.24
34172 H 104.2069528183454 64.63019032445575 59.51296955935431 H 0.0 **** 0.06
34173 H 105.46106619165295 64.8999371601715 60.74652042870195 H 0.0 **** 0.06
34174 H 104.93639676026856 66.24256429417909 59.7016099196181 H 0.0 **** 0.06
34175 H 105.89480495920381 64.90678108733553 59.019848648618186 H 0.0 **** 0.06
34176 C 32.005150731750625 100.43652851298049 80.51625175435964 C 0.0 **** -0.24
34177 H 32.5301889061473 101.27676382521449 80.97131564247411 H 0.0 **** 0.06
34178 H 32.3376670830558 99.50722299982937 80.97975014864693 H 0.0 **** 0.06
34179 H 32.221561858749055 100.4077666132905 79.44914986378518 H 0.0 **** 0.06
34180 H 30.932426239569196 100.55465932305162 80.66662727811149 H 0.0 **** 0.06
34181 C 63.3401245967824 65.01105631000965 18.65252356091247 C 0.0 **** -0.24
34182 H 63.364560799395264 65.85527587157964 17.962706313722492 H 0.0 **** 0.06
34183 H 62.33746963696839 64.58409215431135 18.66782701550764 H 0.0 **** 0.06
34184 H 63.60628931353148 65.3523299125151 19.652932098731924 H 0.0 **** 0.06
34185 H 64.05268136348946 64.25453395496055 18.32445599821787 H 0.0 **** 0.06
34186 C 56.405010945487305 106.40995072300791 98.43951833702494 C 0.0 **** -0.24
34187 H 56.120989077340624 107.19781447691864 97.74103646786409 H 0.0 **** 0.06
34188 H 57.418326680268734 106.59054309409856 98.79764004993069 H 0.0 **** 0.06
34189 H 56.363201576603416 105.44550350459647 97.93428962272316 H 0.0 **** 0.06
34190 H 55.71568730361159 106.40845532681186 99.28396683109577 H 0.0 **** 0.06
34191 C 71.83744792074117 13.594946372245744 85.45955855964314 C 0.0 **** -0.24
34192 H 71.02597304987705 14.289153804651562 85.68146222111685 H 0.0 **** 0.06
34193 H 72.31377169278929 13.28497007985618 86.38995092884505 H 0.0 **** 0.06
34194 H 72.57073243430784 14.085020561373938 84.82025222300985 H 0.0 **** 0.06
34195 H 71.436528787045 12.719929976374772 84.94742600099914 H 0.0 **** 0.06
34196 C 54.76836232663434 112.19939252666916 57.786508458895874 C 0.0 **** -0.24
34197 H 54.12934539955468 112.16482609731924 56.904405816819256 H 0.0 **** 0.06
34198 H 54.40743475994838 112.97062612755855 58.46704177853491 H 0.0 **** 0.06
34199 H 55.790676796909985 112.42991215150215 57.48556919876213 H 0.0 **** 0.06
34200 H 54.74772248838094 111.232285811564 58.288997438455446 H 0.0 **** 0.06
34201 C 69.10586673614458 35.2437650094721 99.7479568118134 C 0.0 **** -0.24
34202 H 70.06666958823945 34.98057074792615 100.19082615521333 H 0.0 **** 0.06
34203 H 68.62990350401287 36.01965375750217 100.34755602735939 H 0.0 **** 0.06
34204 H 68.46542407520428 34.36237591277438 99.71999237867675 H 0.0 **** 0.06
34205 H 69.26241742320266 35.61243037816456 98.733770758947 H 0.0 **** 0.06
34206 C 68.06303610200183 41.83934940846353 75.24938218843258 C 0.0 **** -0.24
34207 H 67.4305794430602 40.999924002520835 74.959194016455 H 0.0 **** 0.06
34208 H 68.94531705279422 41.86613438341206 74.60947556370363 H 0.0 **** 0.06
34209 H 68.37069833299134 41.720562429250386 76.28824944130542 H 0.0 **** 0.06
34210 H 67.50577590028558 42.76909347894727 75.13884465507948 H 0.0 **** 0.06
34211 C 97.41916858580134 19.218439196364216 9.744821212914246 C 0.0 **** -0.24
34212 H 97.42035629641146 20.03059300216492 9.018212430787571 H 0.0 **** 0.06
34213 H 98.36317897961302 18.67478039312789 9.68238565733759 H 0.0 **** 0.06
34214 H 96.59372194486238 18.539630499809306 9.530718063232143 H 0.0 **** 0.06
34215 H 97.30235348106945 19.62877757852675 10.748583285367488 H 0.0 **** 0.06
34216 C 103.11608141124645 88.98540142877701 77.94266923926256 C 0.0 **** -0.24
34217 H 104.09867996289319 89.45098455217303 77.86113974590171 H 0.0 **** 0.06
34218 H 102.76798219326969 89.04924493631157 78.97371798806046 H 0.0 **** 0.06
34219 H 103.18457758393379 87.93897337733159 77.64491398428004 H 0.0 **** 0.06
34220 H 102.41335864747094 89.50365665892329 77.28907388256636 H 0.0 **** 0.06
34221 C 86.91715444485666 97.70838045987364 42.98855732906762 C 0.0 **** -0.24
34222 H 87.9540318703989 97.96289577695086 42.77070719015347 H 0.0 **** 0.06
34223 H 86.51210293125357 97.10763867455682 42.174045104101225 H 0.0 **** 0.06
34224 H 86.33330745074144 98.62345824608917 43.09063051221213 H 0.0 **** 0.06
34225 H 86.86956282503385 97.14167733399344 43.91836116068208 H 0.0 **** 0.06
34226 C 65.42452834083642 74.74087096440601 99.50669756492698 C 0.0 **** -0.24
34227 H 65.44033038715185 73.93614770875269 100.24213646880028 H 0.0 **** 0.06
34228 H 65.46857438840888 75.70229787993955 100.01995763115153 H 0.0 **** 0.06
34229 H 64.50532168461538 74.6818638216644 98.92425458597793 H 0.0 **** 0.06
34230 H 66.2833690815693 74.64382003601747 98.84251892034214 H 0.0 **** 0.06
34231 C 2.569446165679805 98.69349679515068 8.630184656041749 C 0.0 **** -0.24
34232 H 1.7957981639585512 98.71998554562657 9.396975130643206 H 0.0 **** 0.06
34233 H 2.3032024174930754 99.37539456890903 7.8220724673382875 H 0.0 **** 0.06
34234 H 2.6573149288356497 97.68077534241837 8.238433673565321 H 0.0 **** 0.06
34235 H 3.5210473890681797 98.99914430708995 9.064305883044323 H 0.0 **** 0.06
34236 C 63.5529198659354 74.31980730492353 78.94376797144383 C 0.0 **** -0.24
34237 H 63.923370248883465 73.41121249346816 79.41713619870046 H 0.0 **** 0.06
34238 H 62.80278265908576 74.06036884641833 78.19701741074218 H 0.0 **** 0.06
34239 H 64.37950284343484 74.84215134428564 78.46271098967358 H 0.0 **** 0.06
34240 H 63.105669322319265 74.96657178558252 79.69905484912806 H 0.0 **** 0.06
34241 C 96.4865148570446 19.369482731921096 113.7755951992219 C 0.0 **** -0.24
34242 H 96.12980778048137 19.369289525492036 114.80561927589353 H 0.0 **** 0.06
34243 H 96.06453844078567 20.224680541698717 113.24659023887429 H 0.0 **** 0.06
34244 H 96.17601091937516 18.447640742031638 113.28330743180611 H 0.0 **** 0.06
34245 H 97.57451175630072 19.437261590948538 113.76769838048666 H 0.0 **** 0.06
34246 C 41.98908222747184 66.40815781293611 93.7840517002638 C 0.0 **** -0.24
34247 H 41.81743518846369 65.35049068560934 93.98106703667125 H 0.0 **** 0.06
34248 H 42.860039200845705 66.74589806564651 94.34649911374473 H 0.0 **** 0.06
34249 H 41.113534150312546 66.98243093176518 94.08964884695604 H 0.0 **** 0.06
34250 H 42.164539274017784 66.55579587775827 92.71778649971515 H 0.0 **** 0.06
34251 C 17.894954858680084 31.544919654947165 117.6740347183883 C 0.0 **** -0.24
34252 H 18.18433054328579 32.58539105546113 117.81808848150516 H 0.0 **** 0.06
34253 H 17.840306803931007 31.32679646099875 116.60794355261154 H 0.0 **** 0.06
34254 H 16.919999922511632 31.37251851939974 118.13191613998033 H 0.0 **** 0.06
34255 H 18.635102013262628 30.89439256696486 118.14129839017508 H 0.0 **** 0.06
34256 C 95.13143792013943 57.52063238140781 18.501711400149873 C 0.0 **** -0.24
34257 H 94.15410321249652 57.881395284348 18.823365883794906 H 0.0 **** 0.06
34258 H 95.86202704051743 58.32600929758843 18.5870414727612 H 0.0 **** 0.06
34259 H 95.07356682752282 57.19081147855661 17.464385664334742 H 0.0 **** 0.06
34260 H 95.4352318097408 56.68488155854911 19.132071142828295 H 0.0 **** 0.06
34261 C 70.04003683878886 40.133082117398665 31.977714200899413 C 0.0 **** -0.24
34262 H 70.16905019480481 39.08759693373138 32.25712220621699 H 0.0 **** 0.06
34263 H 69.23617108292541 40.21659604309692 31.246281467246632 H 0.0 **** 0.06
34264 H 70.966819097464 40.50990876743543 31.545279373932004 H 0.0 **** 0.06
34265 H 69.78877565132296 40.71749862955403 32.86318512767967 H 0.0 **** 0.06
34266 C 9.269845100054738 8.038816873028964 75.2499686035882 C 0.0 **** -0.24
34267 H 8.717228911953583 7.3031130310698416 74.66512177814047 H 0.0 **** 0.06
34268 H 9.797685879438149 8.715283188328414 74.5762860965001 H 0.0 **** 0.06
34269 H 9.989422342290396 7.527536404839822 75.88937726869997 H 0.0 **** 0.06
34270 H 8.575189450155563 8.608414595623543 75.86705653341991 H 0.0 **** 0.06
34271 C 68.03346668295666 48.61553334442783 50.71285207243191 C 0.0 **** -0.24
34272 H 68.17282997935496 48.55155865021132 51.792103985045884 H 0.0 **** 0.06
34273 H 68.23875337072371 49.633722512475686 50.380667143057224 H 0.0 **** 0.06
34274 H 67.00509511974843 48.352201119069406 50.462672702674055 H 0.0 **** 0.06
34275 H 68.71626739913933 47.9264411123319 50.216938186712234 H 0.0 **** 0.06
34276 C 100.86921802846354 6.265858775338565 79.2174578209997 C 0.0 **** -0.24
34277 H 100.57631125254522 5.232055378507507 79.39999196163075 H 0.0 **** 0.06
34278 H 99.99556613251698 6.91178164779566 79.30612907373734 H 0.0 **** 0.06
34279 H 101.28680224366204 6.353862805066795 78.21402305186962 H 0.0 **** 0.06
34280 H 101.6195164046425 6.5654215306865495 79.95007310075698 H 0.0 **** 0.06
34281 C 94.8840978194533 55.74151305060121 25.04217679290838 C 0.0 **** -0.24
34282 H 95.01743067725815 55.88782758010515 23.97026029342365 H 0.0 **** 0.06
34283 H 95.85239821737812 55.55353866138364 25.5064779471071 H 0.0 **** 0.06
34284 H 94.2276353177086 54.88826668779399 25.212887653988503 H 0.0 **** 0.06
34285 H 94.43872760837039 56.6350489732051 25.47879385387185 H 0.0 **** 0.06
34286 C 18.284422174255464 49.06292125293044 90.73084529187327 C 0.0 **** -0.24
34287 H 17.203590760630302 48.99251194471293 90.85386384616038 H 0.0 **** 0.06
34288 H 18.70187975219112 49.67086074187614 91.53312846101812 H 0.0 **** 0.06
34289 H 18.510245524692202 49.52421003159202 89.76946085115699 H 0.0 **** 0.06
34290 H 18.71896004851377 48.06405648720687 90.76596745600455 H 0.0 **** 0.06
34291 C 104.11722210018203 73.24156902449442 6.224593930454034 C 0.0 **** -0.24
34292 H 103.83426576361404 74.20957188462046 5.809627891868274 H 0.0 **** 0.06
34293 H 103.67159130985382 73.12671856556926 7.2130281364932785 H 0.0 **** 0.06
34294 H 105.20216910925924 73.18585076860711 6.306581517347354 H 0.0 **** 0.06
34295 H 103.76032520028627 72.44724373675353 5.569355436668388 H 0.0 **** 0.06
34296 C 78.37886297222477 3.1261850721017286 38.04299898359437 C 0.0 **** -0.24
34297 H 78.64325370069187 2.077741146161184 37.902722514500965 H 0.0 **** 0.06
34298 H 78.24730512848978 3.5996027097384538 37.0692475099512 H 0.0 **** 0.06
34299 H 79.17653872999566 3.6312015498094166 38.588320308256044 H 0.0 **** 0.06
34300 H 77.45032075777004 3.1942365466630633 38.609195840620714 H 0.0 **** 0.06
34301 C 108.74812691354057 111.72824595936811 77.43275306182744 C 0.0 **** -0.24
34302 H 109.31477332819907 112.65164328949936 77.5550511244349 H 0.0 **** 0.06
34303 H 108.19585530982783 111.76362077350922 76.49284915209029 H 0.0 **** 0.06
34304 H 108.0496224029936 111.61915450602214 78.26135729351068 H 0.0 **** 0.06
34305 H 109.43341854109877 110.88141419754015 77.41987470714838 H 0.0 **** 0.06
34306 C 18.311444718265108 101.46981328908143 3.996297802625371 C 0.0 **** -0.24
34307 H 18.426709334209654 100.96332200413366 4.955344883297794 H 0.0 **** 0.06
34308 H 19.08335927171452 102.23248546330777 3.8935376704049496 H 0.0 **** 0.06
34309 H 17.32841739824502 101.93893040427011 3.9504500791905652 H 0.0 **** 0.06
34310 H 18.40638663761711 100.74440101760896 3.1892001925812306 H 0.0 **** 0.06
34311 C 23.105941333505257 78.04525520707537 83.37169218991005 C 0.0 **** -0.24
34312 H 22.580850736902562 77.14667257592828 83.69795707987146 H 0.0 **** 0.06
34313 H 23.01904682262318 78.14345777302952 82.28922038045724 H 0.0 **** 0.06
34314 H 24.15718480870578 77.97215636442297 83.64750950677765 H 0.0 **** 0.06
34315 H 22.66382525034919 78.91805476057442 83.8526920934111 H 0.0 **** 0.06
34316 C 68.41246532910898 22.233166675114916 31.475284557855105 C 0.0 **** -0.24
34317 H 69.44300412874236 22.37968830250719 31.14997572801599 H 0.0 **** 0.06
34318 H 67.73887790846976 22.401894917024805 30.634743439725355 H 0.0 **** 0.06
34319 H 68.18124573361234 22.936915893785255 32.27458304771113 H 0.0 **** 0.06
34320 H 68.28974540136352 21.214221170936014 31.840448032593144 H 0.0 **** 0.06
34321 C 31.68787970744455 15.717342878417398 9.223462792555608 C 0.0 **** -0.24
34322 H 31.059076244725844 15.300370956418831 8.437752220645123 H 0.0 **** 0.06
34323 H 31.20761591659877 15.568606837323387 10.190545956508899 H 0.0 **** 0.06
34324 H 31.829509312082223 16.78373855049952 9.04763077283637 H 0.0 **** 0.06
34325 H 32.65699809580829 15.216888544514887 9.217574618893764 H 0.0 **** 0.06
34326 C 63.15443062527415 114.82633926978491 113.72095062413314 C 0.0 **** -0.24
34327 H 62.881973532666116 115.77683573620033 114.18103131523839 H 0.0 **** 0.06
34328 H 63.97103861980589 114.9849718989766 113.01665832840666 H 0.0 **** 0.06
34329 H 62.29299768804619 114.41920833303082 113.19306032319156 H 0.0 **** 0.06
34330 H 63.47250333036157 114.12771095793921 114.49406234834265 H 0.0 **** 0.06
34331 C 65.62311883724536 80.36109683350557 95.53968010175998 C 0.0 **** -0.24
34332 H 65.50126636606387 79.6124700912975 94.75674616107494 H 0.0 **** 0.06
34333 H 66.13415690418432 79.91484325581794 96.3926094009978 H 0.0 **** 0.06
34334 H 64.6441185680547 80.7250121472093 95.84980850306249 H 0.0 **** 0.06
34335 H 66.21489868465699 81.19264577204731 95.15642617672358 H 0.0 **** 0.06
34336 C 22.147044719003006 88.32893290606245 42.86253530512303 C 0.0 **** -0.24
34337 H 21.835312325796863 89.14448535033338 42.210781797005524 H 0.0 **** 0.06
34338 H 22.94018941195418 87.7595016583945 42.37774655321883 H 0.0 **** 0.06
34339 H 21.296350472648385 87.6746452976513 43.05707240349302 H 0.0 **** 0.06
34340 H 22.513905834845062 88.73684291767398 43.80481284277281 H 0.0 **** 0.06
34341 C 72.80843793512801 41.95981068677435 36.55199129534773 C 0.0 **** -0.24
34342 H 73.30251374539404 42.908651464456 36.75778430533995 H 0.0 **** 0.06
34343 H 72.53204176066444 41.482292401626864 37.491966296956406 H 0.0 **** 0.06
34344 H 73.48655211239614 41.3090834975622 35.99963283062604 H 0.0 **** 0.06
34345 H 71.91277622928027 42.13840072894317 35.95743326998442 H 0.0 **** 0.06
34346 C 31.468491981017763 50.21848105927893 84.15617439098347 C 0.0 **** -0.24
34347 H 31.838870870038164 49.57941907447548 83.35508901384472 H 0.0 **** 0.06
34348 H 30.44138461231526 50.51454817830938 83.93996533346362 H 0.0 **** 0.06
34349 H 32.09437050992025 51.10691761187536 84.23124798799944 H 0.0 **** 0.06
34350 H 31.497832184950454 49.671688394063096 85.09934170347154 H 0.0 **** 0.06
34351 C 65.89956859912698 39.80485270880352 16.11405693152429 C 0.0 **** -0.24
34352 H 65.78469955762583 40.856573036829104 15.852368173763807 H 0.0 **** 0.06
34353 H 65.07577163239222 39.23269536373752 15.687280524357817 H 0.0 **** 0.06
34354 H 65.89159691576069 39.69844237296587 17.199563705404188 H 0.0 **** 0.06
34355 H 66.8450801904483 39.43303170496003 15.719456459880519 H 0.0 **** 0.06
34356 C 42.13150933692825 40.43270110606636 102.10364460798382 C 0.0 **** -0.24
34357 H 41.447365427714516 40.43658615200104 102.95254661779813 H 0.0 **** 0.06
34358 H 43.033630313111274 39.87963317254054 102.36677047823261 H 0.0 **** 0.06
34359 H 42.395873037274384 41.45813606844075 101.84506086730121 H 0.0 **** 0.06
34360 H 41.64838586063715 39.955356521390684 101.25064081609196 H 0.0 **** 0.06
34361 C 105.99542803208323 23.806458046223973 44.89286044775034 C 0.0 **** -0.24
34362 H 106.85670161582368 24.053653017872918 45.513722787313924 H 0.0 **** 0.06
34363 H 106.03152419727166 24.391145361196877 43.973240186795095 H 0.0 **** 0.06
34364 H 105.07851152373118 24.03658260074956 45.43505815164167 H 0.0 **** 0.06
34365 H 106.01715605375949 22.743974458244836 44.64954354826122 H 0.0 **** 0.06
34366 C 91.56880871382731 19.80781699674509 55.92092900838861 C 0.0 **** -0.24
34367 H 92.55605757292335 19.838702414387228 56.38334054441833 H 0.0 **** 0.06
34368 H 91.4086157333096 20.720399114616043 55.34624327409824 H 0.0 **** 0.06
34369 H 90.8073285874944 19.727787969834182 56.69698439664427 H 0.0 **** 0.06
34370 H 91.50433284626246 18.9449501677079 55.259008927996945 H 0.0 **** 0.06
34371 C 116.03012378199179 80.70707377077531 115.86133409713187 C 0.0 **** -0.24
34372 H 116.59402671186764 79.83389459968453 116.18961171663413 H 0.0 **** 0.06
34373 H 116.48847834256193 81.118744216957 114.96149623500841 H 0.0 **** 0.06
34374 H 116.03636588151224 81.46037157418289 116.64899012158483 H 0.0 **** 0.06
34375 H 115.00205836820318 80.41527382604329 115.64613911024324 H 0.0 **** 0.06
34376 C 6.92624229871106 109.22153973299046 76.5062907101686 C 0.0 **** -0.24
34377 H 7.51073769381874 109.13103521783069 77.42226487897864 H 0.0 **** 0.06
34378 H 6.011960577033136 108.63440150741309 76.60054191721056 H 0.0 **** 0.06
34379 H 7.510865076514534 108.85290876010907 75.66332333693376 H 0.0 **** 0.06
34380 H 6.67003484113971 110.26819493308147 76.34075755609067 H 0.0 **** 0.06
34381 C 73.36109135511853 14.226600747183568 21.721341785374705 C 0.0 **** -0.24
34382 H 73.64657576880222 13.439790913604895 21.02263759691573 H 0.0 **** 0.06
34383 H 73.96092392231745 14.142606848607215 22.627614090093914 H 0.0 **** 0.06
34384 H 72.30510867024392 14.121694820814753 21.972799450377238 H 0.0 **** 0.06
34385 H 73.53016952602627 15.199453572840355 21.261751301695995 H 0.0 **** 0.06
34386 C 109.23738138274058 0.021942617444093315 13.247104885574846 C 0.0 **** -0.24
34387 H 110.15704921233385 0.3835434150674839 12.78544417937205 H 0.0 **** 0.06
34388 H 109.00580986514947 -0.9720624762321073 12.86363114256287 H 0.0 **** 0.06
34389 H 108.42071099635913 0.7028597809526413 13.010417795023141 H 0.0 **** 0.06
34390 H 109.36888164859778 -0.0271997219424307 14.327497505237464 H 0.0 **** 0.06
34391 C 46.591228261622696 59.08374340782223 83.41299652781149 C 0.0 **** -0.24
34392 H 46.24472926194383 58.58724139932567 82.50690561779862 H 0.0 **** 0.06
34393 H 46.90351769107908 58.33485252394431 84.14082640167578 H 0.0 **** 0.06
34394 H 45.781974422758786 59.68223506905999 83.83176083520274 H 0.0 **** 0.06
34395 H 47.43482835655528 59.73139443175662 83.17184581058766 H 0.0 **** 0.06
34396 C 3.0993930458363934 87.70036242235682 38.81007969581045 C 0.0 **** -0.24
34397 H 3.769992023417956 87.87816495120637 39.65018075028802 H 0.0 **** 0.06
34398 H 2.9931381298799806 86.62682230077405 38.6510195607412 H 0.0 **** 0.06
34399 H 3.509307726935205 88.16229306813727 37.91273164934216 H 0.0 **** 0.06
34400 H 2.122709382489731 88.13344761624472 39.027999075800786 H 0.0 **** 0.06
34401 C 29.941689971477516 19.621843621023444 18.460641207830434 C 0.0 **** -0.24
34402 H 29.706664582478105 19.374723784225644 19.496119090952078 H 0.0 **** 0.06
34403 H 29.151207472479328 19.246758037838525 17.810426776550912 H 0.0 **** 0.06
34404 H 30.890501629047016 19.162241528472393 18.18447295591801 H 0.0 **** 0.06
34405 H 30.017129409324575 20.70425041018493 18.35329576009002 H 0.0 **** 0.06
34406 C 15.88425817787811 25.802881501395035 29.75109741432113 C 0.0 **** -0.24
34407 H 14.936442896253226 26.23790903102355 30.068647141774008 H 0.0 **** 0.06
34408 H 15.697180458461418 24.853647167848663 29.247805502017478 H 0.0 **** 0.06
34409 H 16.51618362223431 25.634812657403018 30.62221770888341 H 0.0 **** 0.06
34410 H 16.384812734009273 26.486390852934278 29.064432474899114 H 0.0 **** 0.06
34411 C 10.638303486090933 48.76555922090628 95.3273968036288 C 0.0 **** -0.24
34412 H 9.60112029163156 48.51266676575344 95.55084273897194 H 0.0 **** 0.06
34413 H 11.231874126469279 47.85342002980468 95.27993660129926 H 0.0 **** 0.06
34414 H 11.0300466170454 49.41456889343624 96.11054323132672 H 0.0 **** 0.06
34415 H 10.687860064514837 49.28262946780262 94.36951057277324 H 0.0 **** 0.06
34416 C 44.35705513795847 115.80286480404799 74.8131826453002 C 0.0 **** -0.24
34417 H 44.00934738193416 115.03789229935335 74.11878509159831 H 0.0 **** 0.06
34418 H 44.74030000246768 115.32541770612278 75.71612911731017 H 0.0 **** 0.06
34419 H 43.52808929484763 116.46029483279487 75.07356103221838 H 0.0 **** 0.06
34420 H 45.150609626132876 116.38506427375353 74.34470252375667 H 0.0 **** 0.06
34421 C 93.70835755846298 53.36368808994997 101.89476771263492 C 0.0 **** -0.24
34422 H 93.06373759289642 52.495048465769614 102.03194613110227 H 0.0 **** 0.06
34423 H 94.7114562909901 53.03231324677142 101.62781609315061 H 0.0 **** 0.06
34424 H 93.74748530146763 53.936226954638535 102.82064445831554 H 0.0 **** 0.06
34425 H 93.30712840438173 53.98981775514401 101.09722684496904 H 0.0 **** 0.06
34426 C 31.38952981422193 112.27484764955783 5.299702971502889 C 0.0 **** -0.24
34427 H 30.885433246567402 111.55942373926773 4.649541544919403 H 0.0 **** 0.06
34428 H 31.8949814505022 111.74002562494115 6.104348027018107 H 0.0 **** 0.06
34429 H 30.655926345162243 112.9602216941339 5.724348642883113 H 0.0 **** 0.06
34430 H 32.12168707129425 112.83763515797709 4.7213782441993875 H 0.0 **** 0.06
34431 C 46.556690402109695 80.06916976710542 40.98238032858498 C 0.0 **** -0.24
34432 H 46.13539853215863 79.28867346224345 41.61692135796389 H 0.0 **** 0.06
34433 H 46.24542667914085 79.90629626889853 39.95077446415672 H 0.0 **** 0.06
34434 H 47.64424441814029 80.03883036553242 41.04364462323616 H 0.0 **** 0.06
34435 H 46.19994260642784 81.04231115781351 41.32055106095183 H 0.0 **** 0.06
34436 C 45.411004866166834 27.518485076605913 85.41836503015958 C 0.0 **** -0.24
34437 H 44.637446865348295 27.89206483787106 86.08867816745166 H 0.0 **** 0.06
34438 H 46.08399724523858 28.332768008119956 85.14927554523246 H 0.0 **** 0.06
34439 H 44.94766682882414 27.11692345236878 84.51790425038612 H 0.0 **** 0.06
34440 H 45.975508236104545 26.73130285829842 85.91853169460708 H 0.0 **** 0.06
34441 C 53.69481707506832 112.68671781297894 104.40807856619466 C 0.0 **** -0.24
34442 H 54.289685512800766 112.4590526014841 103.52359981764454 H 0.0 **** 0.06
34443 H 53.46832897190372 111.76325334921162 104.94079150830521 H 0.0 **** 0.06
34444 H 52.765262266235766 113.1692982449589 104.10558464208867 H 0.0 **** 0.06
34445 H 54.25537594568947 113.35522406709478 105.06071985311715 H 0.0 **** 0.06
34446 C 81.2197582674678 37.72551949221044 18.995892206667023 C 0.0 **** -0.24
34447 H 81.39382813090873 38.67298782358583 18.48638167356772 H 0.0 **** 0.06
34448 H 82.05290849843186 37.51751595379909 19.66787571872365 H 0.0 **** 0.06
34449 H 81.13780715379409 36.92707757415761 18.25906248988376 H 0.0 **** 0.06
34450 H 80.2961530471087 37.78620146261959 19.570819694182433 H 0.0 **** 0.06
34451 C 69.35517634047332 58.54028187804579 94.3941034849345 C 0.0 **** -0.24
34452 H 68.26702280551237 58.47960469952011 94.35717391177386 H 0.0 **** 0.06
34453 H 69.7839847505482 57.757289215010246 93.7675753629427 H 0.0 **** 0.06
34454 H 69.69148039095776 58.40793194322612 95.42177199599362 H 0.0 **** 0.06
34455 H 69.67695251837668 59.51601710232694 94.02874408615045 H 0.0 **** 0.06
34456 C 64.1621962855973 37.08542612442096 60.31413694665429 C 0.0 **** -0.24
34457 H 64.99638145176851 37.466027951826106 59.7260376031808 H 0.0 **** 0.06
34458 H 64.03604907017854 36.019759410103006 60.11934735455958 H 0.0 **** 0.06
34459 H 63.25097361957637 37.615989430319615 60.03771442900532 H 0.0 **** 0.06
34460 H 64.36441586130314 37.23961238024086 61.37443287575414 H 0.0 **** 0.06
34461 C 34.07367554910019 95.15386131079603 33.01833868137314 C 0.0 **** -0.24
34462 H 35.14898646278522 95.03233661918352 33.14682886143294 H 0.0 **** 0.06
34463 H 33.73966154134601 94.56034890075117 32.166633746187955 H 0.0 **** 0.06
34464 H 33.84480401751969 96.20512877880643 32.84024553189579 H 0.0 **** 0.06
34465 H 33.559975191150244 94.8174313486048 33.91906805729056 H 0.0 **** 0.06
34466 C 1.593572892633972 43.041939055054286 75.84350944178473 C 0.0 **** -0.24
34467 H 0.5123167405396742 43.164688407736605 75.77439106949757 H 0.0 **** 0.06
34468 H 2.085151570470643 43.95796022755874 75.51326062021366 H 0.0 **** 0.06
34469 H 1.906691314346915 42.21222124265047 75.20914375752153 H 0.0 **** 0.06
34470 H 1.8701319451785423 42.832886342271195 76.87724231990606 H 0.0 **** 0.06
34471 C 89.25311957336035 67.43639975275156 99.48507843016617 C 0.0 **** -0.24
34472 H 88.73830937311251 66.59376216559392 99.94842605412703 H 0.0 **** 0.06
34473 H 89.23886438893553 68.28823483719427 100.16617272783105 H 0.0 **** 0.06
34474 H 88.74933693293514 67.7045897341344 98.55741488784946 H 0.0 **** 0.06
34475 H 90.28523983384386 67.15789336726226 99.27179565180802 H 0.0 **** 0.06
34476 C 36.29844233932664 73.90872805393428 57.15395692638936 C 0.0 **** -0.24
34477 H 35.94457654969614 74.94000688818244 57.13468004204902 H 0.0 **** 0.06
34478 H 36.88953268551461 73.71205237000251 56.25863545396596 H 0.0 **** 0.06
34479 H 35.443670097645736 73.2327352588214 57.18159278057215 H 0.0 **** 0.06
34480 H 36.91432799603837 73.75266375694525 58.03898138604405 H 0.0 **** 0.06
34481 C 64.24999282304631 116.93644739599154 7.844742822601631 C 0.0 **** -0.24
34482 H 63.4923035974543 116.62573842743473 7.1245215950281136 H 0.0 **** 0.06
34483 H 64.41282760944199 118.01062584842657 7.758812422000176 H 0.0 **** 0.06
34484 H 65.18261031828149 116.4088062030126 7.64120649559527 H 0.0 **** 0.06
34485 H 63.91163534972524 116.69872918315565 8.852990217295087 H 0.0 **** 0.06
34486 C 62.24412675640924 105.56740042663012 25.84874218175935 C 0.0 **** -0.24
34487 H 61.71648985488955 106.07335780708479 25.040890131524336 H 0.0 **** 0.06
34488 H 61.61132845683468 105.54235034193161 26.73620001521485 H 0.0 **** 0.06
34489 H 63.16529688984455 106.104408237001 26.073799364815244 H 0.0 **** 0.06
34490 H 62.483872319082 104.54784293464735 25.544347299272317 H 0.0 **** 0.06
34491 C 22.873862806904526 57.32196039513379 113.43508683125755 C 0.0 **** -0.24
34492 H 22.750201894778428 57.95899881074717 112.558829075817 H 0.0 **** 0.06
34493 H 21.99066209778212 56.694722051914134 113.55532046707458 H 0.0 **** 0.06
34494 H 23.00061236778734 57.94421002285504 114.32082861137383 H 0.0 **** 0.06
34495 H 23.753577327982242 56.69121452609411 113.3049922037138 H 0.0 **** 0.06
34496 C 56.134108366751356 110.24036230878704 96.32775613292861 C 0.0 **** -0.24
34497 H 55.300569309595424 110.93205801585037 96.44958903717378 H 0.0 **** 0.06
34498 H 56.94464269970495 110.52732295390993 96.99743906838191 H 0.0 **** 0.06
34499 H 56.4844886787677 110.27232653917335 95.2963680091975 H 0.0 **** 0.06
34500 H 55.80400736177942 109.22872753974934 96.5683660172287 H 0.0 **** 0.06
34501 C 29.918602822451945 41.371055649599526 10.463338077090782 C 0.0 **** -0.24
34502 H 30.74356449216907 41.93698822368111 10.896862210508232 H 0.0 **** 0.06
34503 H 28.972205295563867 41.835731046677786 10.744368698450131 H 0.0 **** 0.06
34504 H 29.945428334406216 40.347299092672706 10.836823664734226 H 0.0 **** 0.06
34505 H 30.012983739282248 41.36557180106988 9.37731701127666 H 0.0 **** 0.06
34506 C 47.186065562076124 37.07350421289922 95.83192257672451 C 0.0 **** -0.24
34507 H 46.71487123601969 36.917354602007066 96.80254083278473 H 0.0 **** 0.06
34508 H 46.46611968351709 36.863084931513356 95.04086237476506 H 0.0 **** 0.06
34509 H 48.04184335412032 36.40657925079361 95.73275116434709 H 0.0 **** 0.06
34510 H 47.52041827325979 38.10798071507813 95.75418460135285 H 0.0 **** 0.06
34511 C 115.97097333974158 100.70811839319305 67.79126745291845 C 0.0 **** -0.24
34512 H 115.94056196317993 101.78991534819454 67.66537859575129 H 0.0 **** 0.06
34513 H 115.26521804358673 100.41166423568842 68.56745234284486 H 0.0 **** 0.06
34514 H 116.97714304975652 100.40466744497076 68.08007637299013 H 0.0 **** 0.06
34515 H 115.7016258754068 100.22532962382382 66.85128735692768 H 0.0 **** 0.06
34516 C 46.485689993985716 44.776772527906815 88.16988952389886 C 0.0 **** -0.24
34517 H 46.309769489080566 45.15262974508164 87.16248551478651 H 0.0 **** 0.06
34518 H 45.5356885555438 44.48280187859979 88.61840062692517 H 0.0 **** 0.06
34519 H 46.9464875369282 45.558275193542045 88.77358459894924 H 0.0 **** 0.06
34520 H 47.149650386561916 43.9125825034709 88.12502461121557 H 0.0 **** 0.06
34521 C 61.98814439636254 32.977276952531724 31.664555194178178 C 0.0 **** -0.24
34522 H 61.10131153419786 32.76262615690979 32.26082701044439 H 0.0 **** 0.06
34523 H 61.784619618377576 32.75467224124242 30.61638227590194 H 0.0 **** 0.06
34524 H 62.81714824335657 32.36074437607718 32.01206026473582 H 0.0 **** 0.06
34525 H 62.24967131613974 34.03037646672777 31.767728107979337 H 0.0 **** 0.06
34526 C 45.15184645835508 41.1044338365399 88.58367970255563 C 0.0 **** -0.24
34527 H 45.27560068489532 40.17325774271808 88.0297558726997 H 0.0 **** 0.06
34528 H 45.908118102697614 41.16247300479387 89.36760018721287 H 0.0 **** 0.06
34529 H 44.15950744405554 41.130149901476386 89.03331344535155 H 0.0 **** 0.06
34530 H 45.26603107296667 41.9491290365944 87.90431201036046 H 0.0 **** 0.06
34531 C 66.45824906873901 77.50392669803975 60.15243956970439 C 0.0 **** -0.24
34532 H 66.09256138164358 76.8906884517128 59.32908368394724 H 0.0 **** 0.06
34533 H 66.81221890006651 78.45935528645245 59.76449605375387 H 0.0 **** 0.06
34534 H 67.27815670054463 76.98820670714554 60.653103110443816 H 0.0 **** 0.06
34535 H 65.64980895413953 77.67620849315938 60.863692122566725 H 0.0 **** 0.06
34536 C 18.354600661161072 7.684443522048298 56.426797891084846 C 0.0 **** -0.24
34537 H 19.230648090793608 8.250044955904855 56.10854402965964 H 0.0 **** 0.06
34538 H 18.658391492248285 6.681344342593093 56.724384307074246 H 0.0 **** 0.06
34539 H 17.64602384409804 7.619268275075342 55.600680652742426 H 0.0 **** 0.06
34540 H 17.8837078398478 8.188559206296816 57.270618894307574 H 0.0 **** 0.06
34541 C 10.713934472681927 109.32949354105358 110.06937870908689 C 0.0 **** -0.24
34542 H 10.788482621982553 109.48336072402691 111.14576665843461 H 0.0 **** 0.06
34543 H 11.646088496136628 109.63711446330296 109.59350170278859 H 0.0 **** 0.06
34544 H 9.890778808761894 109.9244991671833 109.67378595444288 H 0.0 **** 0.06
34545 H 10.53099641375195 108.2745513070818 109.86398848226534 H 0.0 **** 0.06
34546 C 75.01588274902227 68.78503080984015 90.55195750584929 C 0.0 **** -0.24
34547 H 76.05645704522664 68.73578919859114 90.87207614509916 H 0.0 **** 0.06
34548 H 74.93433661102472 69.43869159875297 89.68266097574767 H 0.0 **** 0.06
34549 H 74.40461916566545 69.18058965809729 91.36323157087656 H 0.0 **** 0.06
34550 H 74.66888714671603 67.78604848224856 90.28867076805159 H 0.0 **** 0.06
34551 C 47.57951366738456 40.02761545411971 58.2354836219622 C 0.0 **** -0.24
34552 H 48.47928345661518 39.929598702089436 57.62783353251643 H 0.0 **** 0.06
34553 H 47.20650600627357 39.036517082102876 58.494162735972395 H 0.0 **** 0.06
34554 H 46.818966803103535 40.567805859353484 57.6726734429904 H 0.0 **** 0.06
34555 H 47.816248390985436 40.575996798424285 59.14731811749158 H 0.0 **** 0.06
34556 C 88.05927598624248 118.68959343946685 1.711270265900481 C 0.0 **** -0.24
34557 H 87.77571095664118 118.23104742914222 0.7641261484021413 H 0.0 **** 0.06
34558 H 88.8060634339156 119.46224072985626 1.5308119842856343 H 0.0 **** 0.06
34559 H 88.47609138957662 117.92912076160107 2.372434283948806 H 0.0 **** 0.06
34560 H 87.18058749280581 119.13453281873615 2.1773496606297584 H 0.0 **** 0.06
34561 C 116.11927804300923 13.85127232891784 74.13463711829868 C 0.0 **** -0.24
34562 H 115.9356707124646 13.69721327323769 73.07095823393993 H 0.0 **** 0.06
34563 H 117.19355041738234 13.856476497507806 74.32011049676223 H 0.0 **** 0.06
34564 H 115.65450339142276 13.04618089239542 74.70345242223578 H 0.0 **** 0.06
34565 H 115.6925486638264 14.806340190317638 74.44102084423855 H 0.0 **** 0.06
34566 C 38.412288445947816 115.0896757777918 56.44331668003315 C 0.0 **** -0.24
34567 H 38.88926988205334 115.92045704101986 55.923579481178734 H 0.0 **** 0.06
34568 H 37.49414218025205 114.81620118091979 55.92333047576358 H 0.0 **** 0.06
34569 H 38.176138073349655 115.38726752009475 57.465249534558694 H 0.0 **** 0.06
34570 H 39.08820174854027 114.23467299674871 56.46095262900573 H 0.0 **** 0.06
34571 C 92.54021639875484 15.728521872255556 104.98594223005065 C 0.0 **** -0.24
34572 H 92.20817359877151 16.75495849961891 105.14159246367996 H 0.0 **** 0.06
34573 H 92.32662405510752 15.429466387700046 103.95927833411804 H 0.0 **** 0.06
34574 H 92.012488817377 15.067868273397465 105.67325071063226 H 0.0 **** 0.06
34575 H 93.61299734353813 15.661854971120889 105.16835978941486 H 0.0 **** 0.06
34576 C 78.09078494515757 5.543998853849729 10.486308504354128 C 0.0 **** -0.24
34577 H 77.98997155314359 6.456653269373561 11.074456615583287 H 0.0 **** 0.06
34578 H 78.22575371682208 4.693941469275458 11.155286424067924 H 0.0 **** 0.06
34579 H 78.95504198377651 5.629728949210204 9.82829661814148 H 0.0 **** 0.06
34580 H 77.19158950928008 5.396849178486335 9.887219053963776 H 0.0 **** 0.06
34581 C 42.61286807259776 67.10138790879887 83.47063261699282 C 0.0 **** -0.24
34582 H 43.02095943417942 67.22309432129416 84.47371413166803 H 0.0 **** 0.06
34583 H 42.931205182219756 67.93525038674719 82.84558351671467 H 0.0 **** 0.06
34584 H 41.52424769014381 67.07993452942188 83.52204263751867 H 0.0 **** 0.06
34585 H 42.97460845605573 66.16657557006255 83.04300973918214 H 0.0 **** 0.06
34586 C 30.823889530107834 77.13887959640005 81.98769367929381 C 0.0 **** -0.24
34587 H 31.675938759798015 76.55046003795005 81.64614990753225 H 0.0 **** 0.06
34588 H 30.852734004749628 77.22037639274515 83.07512595202905 H 0.0 **** 0.06
34589 H 29.899774438974305 76.64907029093374 81.68388189439403 H 0.0 **** 0.06
34590 H 30.870606376293672 78.13448002316312 81.54632546346127 H 0.0 **** 0.06
34591 C 77.58552668770099 118.57569071587383 53.6236313147017 C 0.0 **** -0.24
34592 H 76.5588966990907 118.24615083329273 53.464650541775235 H 0.0 **** 0.06
34593 H 78.20483194915505 117.719461683872 53.892144714745804 H 0.0 **** 0.06
34594 H 77.6108796225416 119.31050866263533 54.428466327663806 H 0.0 **** 0.06
34595 H 77.96687462532219 119.02770410182143 52.70739756480822 H 0.0 **** 0.06
34596 C 23.473723905202057 75.26092077901049 96.91446020570731 C 0.0 **** -0.24
34597 H 23.512871358613133 74.5614087468256 97.74983377354931 H 0.0 **** 0.06
34598 H 23.381660721103685 76.27829236308432 97.29661081031327 H 0.0 **** 0.06
34599 H 22.612283538536623 75.02859532626903 96.28794845371829 H 0.0 **** 0.06
34600 H 24.38638123533798 75.1742930232449 96.32440611605546 H 0.0 **** 0.06
34601 C 110.88919728449483 99.774805286132 4.662015706613056 C 0.0 **** -0.24
34602 H 110.96000048090076 99.92842319214014 3.5850607235574063 H 0.0 **** 0.06
34603 H 111.88695507774753 99.62288238231835 5.073022218552566 H 0.0 **** 0.06
34604 H 110.2742880688275 98.89747995606484 4.862967184150849 H 0.0 **** 0.06
34605 H 110.43407827273765 100.65052297036803 5.124397339942737 H 0.0 **** 0.06
34606 C 88.95532700212021 79.16855391614166 45.66176393594836 C 0.0 **** -0.24
34607 H 88.27260733917188 79.15081499496193 46.51209142712176 H 0.0 **** 0.06
34608 H 88.54618899677962 78.55782509113732 44.855868119765105 H 0.0 **** 0.06
34609 H 89.92365810469249 78.77079859530028 45.964630441991794 H 0.0 **** 0.06
34610 H 89.07590735874189 80.1942576858417 45.314690942125885 H 0.0 **** 0.06
34611 C 74.11777762713018 3.5148236485808297 102.65697063526918 C 0.0 **** -0.24
34612 H 73.13940691052579 3.9036486453502164 102.37321813878194 H 0.0 **** 0.06
34613 H 73.9887924950774 2.6436670691165887 103.30051372819491 H 0.0 **** 0.06
34614 H 74.67319247132161 4.284080652763947 103.1927472067186 H 0.0 **** 0.06
34615 H 74.66732660306121 3.2273774563980453 101.76131774269035 H 0.0 **** 0.06
34616 C 23.046113410550475 10.298034161556359 89.66623623040817 C 0.0 **** -0.24
34617 H 24.11191478835306 10.296386270854612 89.89407007686353 H 0.0 **** 0.06
34618 H 22.886390405547246 9.883971402132175 88.67104372686055 H 0.0 **** 0.06
34619 H 22.66930384374467 11.320289328812521 89.70101407317455 H 0.0 **** 0.06
34620 H 22.517336424795246 9.691765365067454 90.40176367297784 H 0.0 **** 0.06
34621 C 97.65403937408172 112.69371923367108 64.74424607500688 C 0.0 **** -0.24
34622 H 97.53855204770642 112.02632773418141 63.89074107714435 H 0.0 **** 0.06
34623 H 96.84845862028624 113.42852957565766 64.74408257432606 H 0.0 **** 0.06
34624 H 98.61398786712246 113.20639959699366 64.67711673206054 H 0.0 **** 0.06
34625 H 97.61625396362703 112.11342306517025 65.66637145221657 H 0.0 **** 0.06
34626 C 72.78527309561855 6.8757482355639645 111.66757628730485 C 0.0 **** -0.24
34627 H 73.1016681599065 7.911449330056353 111.79584569806312 H 0.0 **** 0.06
34628 H 71.75486474002412 6.766753295079599 112.00616940965354 H 0.0 **** 0.06
34629 H 73.43211088109433 6.222618451536066 112.25353613818366 H 0.0 **** 0.06
34630 H 72.8531348167279 6.60395680812033 110.61359485995312 H 0.0 **** 0.06
34631 C 72.56275506687848 24.870347218986694 104.91619339118233 C 0.0 **** -0.24
34632 H 71.60114026394297 25.066635912890675 104.44269761580813 H 0.0 **** 0.06
34633 H 73.2789039932249 24.54424313607464 104.16262431556711 H 0.0 **** 0.06
34634 H 72.44420175665061 24.089858749730666 105.66775804516223 H 0.0 **** 0.06
34635 H 72.92478807389853 25.781316735043617 105.39247607289323 H 0.0 **** 0.06
34636 C 115.31127614382629 94.1131620086827 7.054120627018563 C 0.0 **** -0.24
34637 H 114.74164912940918 94.89333521352808 6.548620441390568 H 0.0 **** 0.06
34638 H 114.63194774561421 93.33363636785924 7.400524051958939 H 0.0 **** 0.06
34639 H 115.8376383910211 94.54242855880938 7.906233614325743 H 0.0 **** 0.06
34640 H 116.03346540187549 93.6834354820437 6.360209007575236 H 0.0 **** 0.06
34641 C 13.85892128693601 103.878118092038 76.6046564792668 C 0.0 **** -0.24
34642 H 13.76792669224318 104.47214230637567 75.6949846606091 H 0.0 **** 0.06
34643 H 13.004889360687827 103.20558338149277 76.68531691441427 H 0.0 **** 0.06
34644 H 13.882608954066797 104.54140651320631 77.4700038120624 H 0.0 **** 0.06
34645 H 14.779484140164186 103.29542943905366 76.56813871002788 H 0.0 **** 0.06
34646 C 24.90851517179121 34.57190977963505 104.537020926253 C 0.0 **** -0.24
34647 H 25.807233279905375 34.171756974415274 105.00678159577598 H 0.0 **** 0.06
34648 H 25.049043230006106 34.6065602102462 103.45644986896437 H 0.0 **** 0.06
34649 H 24.72059246795527 35.57865742679172 104.91095652977182 H 0.0 **** 0.06
34650 H 24.059092471456466 33.931542432253195 104.77311044404118 H 0.0 **** 0.06
34651 C 95.36818859597815 39.86138536703376 2.4379032389330746 C 0.0 **** -0.24
34652 H 95.97008715090394 40.63443857474866 2.9146110956868085 H 0.0 **** 0.06
34653 H 94.32833315852238 40.18585827036188 2.392952124298219 H 0.0 **** 0.06
34654 H 95.43618367916241 38.93971373024783 3.0168131614232436 H 0.0 **** 0.06
34655 H 95.738404190571 39.684625977213784 1.4282933774810118 H 0.0 **** 0.06
34656 C 17.74472356964452 33.71616955465669 57.5093993392602 C 0.0 **** -0.24
34657 H 16.71341741138542 33.50673739744707 57.79324849660344 H 0.0 **** 0.06
34658 H 18.207708298946358 32.80625002961972 57.12636641444516 H 0.0 **** 0.06
34659 H 18.29748635573469 34.06478317089977 58.38225526555192 H 0.0 **** 0.06
34660 H 17.760527446483792 34.48561594402548 56.73753597135175 H 0.0 **** 0.06
34661 C 73.17527155963182 86.08412021210125 45.91578148250639 C 0.0 **** -0.24
34662 H 72.87057825565711 85.7439348616486 44.925915580269304 H 0.0 **** 0.06
34663 H 73.3861914312352 87.15309257724294 45.88306346380574 H 0.0 **** 0.06
34664 H 74.07099177739832 85.54509457333526 46.2248757060577 H 0.0 **** 0.06
34665 H 72.37138113423981 85.89412007259537 46.62779957978947 H 0.0 **** 0.06
34666 C 93.87279883544167 38.76019498873336 77.76899919537075 C 0.0 **** -0.24
34667 H 93.9828774408804 37.76125016973231 77.34780746002767 H 0.0 **** 0.06
34668 H 92.84106887675722 39.09267272197667 77.64955679456992 H 0.0 **** 0.06
34669 H 94.53920533909186 39.44942695283606 77.24959348816219 H 0.0 **** 0.06
34670 H 94.12684692510811 38.73861058739544 78.82862140804471 H 0.0 **** 0.06
34671 C 9.34462302711023 86.20629746780719 92.0699555342295 C 0.0 **** -0.24
34672 H 8.5187790583754 86.86649694450927 92.33631056401367 H 0.0 **** 0.06
34673 H 10.264554746081785 86.574535906699 92.52505519993161 H 0.0 **** 0.06
34674 H 9.457975479531257 86.18624110761817 90.98624962033091 H 0.0 **** 0.06
34675 H 9.136630525803213 85.2002049407011 92.43288178375258 H 0.0 **** 0.06
34676 C 82.9894880464864 47.19115982910353 89.03044489541384 C 0.0 **** -0.24
34677 H 82.2701772849723 46.6587440736126 89.65235247216884 H 0.0 **** 0.06
34678 H 84.00169631893678 46.91108545059741 89.32394683115723 H 0.0 **** 0.06
34679 H 82.8572638234678 48.26512151985795 89.16031248100018 H 0.0 **** 0.06
34680 H 82.8287962345776 46.92893377929366 87.98451170613515 H 0.0 **** 0.06
34681 C 68.21425778446928 0.9063404285899992 64.76313498424594 C 0.0 **** -0.24
34682 H 68.84930714030213 0.10362456779012064 65.14015385663987 H 0.0 **** 0.06
34683 H 68.78105731604967 1.8373909298989872 64.74201979592806 H 0.0 **** 0.06
34684 H 67.34918928426987 1.0217302334112048 65.4164345120135 H 0.0 **** 0.06
34685 H 67.87887704837652 0.6604454654086851 63.75575671475199 H 0.0 **** 0.06
34686 C 75.04426633358963 50.82078311488172 92.66974321194982 C 0.0 **** -0.24
34687 H 74.78513565720294 50.37456201484261 91.709012937779 H 0.0 **** 0.06
34688 H 74.69336887042337 51.85237176698203 92.6978571224081 H 0.0 **** 0.06
34689 H 76.127082806553 50.802137108275616 92.79777230082681 H 0.0 **** 0.06
34690 H 74.57325752267786 50.253010240022064 93.47215596771548 H 0.0 **** 0.06
34691 C 93.75684443620511 39.720277949015866 31.259427679890408 C 0.0 **** -0.24
34692 H 93.89195784018213 38.70466566367081 31.631592469527334 H 0.0 **** 0.06
34693 H 94.48711946850025 39.92024308420827 30.475575737081243 H 0.0 **** 0.06
34694 H 93.89896908964582 40.42770310188705 32.07631738894878 H 0.0 **** 0.06
34695 H 92.7505182663775 39.8293313334778 30.856200058912805 H 0.0 **** 0.06
34696 C 23.061462944117068 37.16434837312714 81.18710512459083 C 0.0 **** -0.24
34697 H 22.683315470143498 36.578569150051266 82.02594829099013 H 0.0 **** 0.06
34698 H 22.670486365004308 36.75732680518041 80.25422658620184 H 0.0 **** 0.06
34699 H 24.15032557699925 37.119119269397075 81.1751031632177 H 0.0 **** 0.06
34700 H 22.74097125753991 38.19985325915451 81.2945769223615 H 0.0 **** 0.06
34701 C 58.98465850002668 44.70655571690325 15.53298095304146 C 0.0 **** -0.24
34702 H 58.74406158805192 43.8650063342402 14.883159941712279 H 0.0 **** 0.06
34703 H 58.72572575802644 45.63902743887694 15.029055331640052 H 0.0 **** 0.06
34704 H 60.05041818527337 44.698116396597065 15.75901983540615 H 0.0 **** 0.06
34705 H 58.41515209103568 44.6242196663302 16.45888743465011 H 0.0 **** 0.06
34706 C 105.43370440704695 51.95141877671131 38.10507809446847 C 0.0 **** -0.24
34707 H 106.05945289923244 51.454194126371306 37.363408973102025 H 0.0 **** 0.06
34708 H 104.65203527699617 52.519114445151445 37.59893814541556 H 0.0 **** 0.06
34709 H 106.04543312878485 52.62672373721847 38.70180135243831 H 0.0 **** 0.06
34710 H 104.97713562305125 51.20494084993953 38.75477510175804 H 0.0 **** 0.06
34711 C 64.06185841482764 90.78080945555257 109.84489547750434 C 0.0 **** -0.24
34712 H 63.37254741897781 90.13829847484482 109.29741530745912 H 0.0 **** 0.06
34713 H 64.9066925729517 90.18948112503779 110.1988017544723 H 0.0 **** 0.06
34714 H 63.546123227499926 91.22442390852626 110.69591248010397 H 0.0 **** 0.06
34715 H 64.42214419712204 91.57107785090221 109.18604070884922 H 0.0 **** 0.06
34716 C 63.54407583413274 14.983454898797007 92.4986336502902 C 0.0 **** -0.24
34717 H 63.610175198057675 14.672438564541139 91.45650782967607 H 0.0 **** 0.06
34718 H 63.10283209977189 15.978721938887915 92.55366151094285 H 0.0 **** 0.06
34719 H 64.54272363742496 15.0032469932693 92.93542012994908 H 0.0 **** 0.06
34720 H 62.9214134488206 14.277938058496773 93.04929157077888 H 0.0 **** 0.06
34721 C 14.103261775289866 67.1217717398358 81.89787286958946 C 0.0 **** -0.24
34722 H 15.163026430574007 67.36823720713284 81.83266383773434 H 0.0 **** 0.06
34723 H 13.889778896496466 66.2655538499651 81.2569862712916 H 0.0 **** 0.06
34724 H 13.511353953230412 67.97735441835445 81.57093549381617 H 0.0 **** 0.06
34725 H 13.848998436452234 66.87640967910932 82.92872210578912 H 0.0 **** 0.06
34726 C 31.3149433040777 109.54158779860998 21.409884552510107 C 0.0 **** -0.24
34727 H 31.037656080336603 108.48791008443018 21.402842885284883 H 0.0 **** 0.06
34728 H 30.854386006264235 110.04399024813233 20.559455071119032 H 0.0 **** 0.06
34729 H 32.39920719626724 109.63211746829316 21.34335810034588 H 0.0 **** 0.06
34730 H 30.967682882971417 110.00170630941727 22.33585691716081 H 0.0 **** 0.06
34731 C 86.76800565411361 5.420420252363504 94.43078782867025 C 0.0 **** -0.24
34732 H 85.7135879344446 5.527393320460698 94.68481260072798 H 0.0 **** 0.06
34733 H 86.8613123966725 5.105067876629542 93.39098093636795 H 0.0 **** 0.06
34734 H 87.22420366687649 4.672402567185404 95.07996002599728 H 0.0 **** 0.06
34735 H 87.27384212954033 6.376636851746948 94.56773634286685 H 0.0 **** 0.06
34736 C 20.104282314442855 73.73827741503982 49.52072278307452 C 0.0 **** -0.24
34737 H 19.197006438881658 73.13407220684036 49.52520930838023 H 0.0 **** 0.06
34738 H 20.766193085673592 73.4048039264863 50.3191356186029 H 0.0 **** 0.06
34739 H 19.843557697443543 74.78520242004691 49.67702152925321 H 0.0 **** 0.06
34740 H 20.607972852126125 73.62894153762403 48.560029228415516 H 0.0 **** 0.06
34741 C 88.97403795395218 57.059774940000466 33.858220059116775 C 0.0 **** -0.24
34742 H 89.49873523804808 56.7122716374202 34.74755504572255 H 0.0 **** 0.06
34743 H 87.95830926665761 56.6637774796705 33.857304163016636 H 0.0 **** 0.06
34744 H 89.49989172908326 56.71331233998984 32.96809642239913 H 0.0 **** 0.06
34745 H 88.93979680574566 58.14849234782133 33.8588710634246 H 0.0 **** 0.06
34746 C 94.84745099393635 48.50127739483412 7.56111457129245 C 0.0 **** -0.24
34747 H 94.56823622244963 47.67117456379978 8.210396481994636 H 0.0 **** 0.06
34748 H 94.01477337948097 48.73974000113671 6.89819207391443 H 0.0 **** 0.06
34749 H 95.71735946894265 48.220826154879944 6.966863831927668 H 0.0 **** 0.06
34750 H 95.08861188035621 49.372729949307626 8.169962213966201 H 0.0 **** 0.06
34751 C 56.176896113440336 29.31710874106912 55.85593453603312 C 0.0 **** -0.24
34752 H 56.40534830588746 28.848093503205703 56.81303164572745 H 0.0 **** 0.06
34753 H 56.59305691054175 30.324043799827436 55.83679006286209 H 0.0 **** 0.06
34754 H 55.096320432229504 29.366950870644843 55.72486782816594 H 0.0 **** 0.06
34755 H 56.61379836934546 28.72733926562347 55.04934416667561 H 0.0 **** 0.06
34756 C 52.17143228970964 17.64525628466534 88.92630907375548 C 0.0 **** -0.24
34757 H 52.32236340752466 16.59787492845524 88.66484270021121 H 0.0 **** 0.06
34758 H 52.76565372975013 17.889117464508377 89.8063267495672 H 0.0 **** 0.06
34759 H 51.11622042956367 17.817270526610614 89.14000894895557 H 0.0 **** 0.06
34760 H 52.48051640933695 18.27481834533913 88.09199128053959 H 0.0 **** 0.06
34761 C 74.85221508903987 16.135511613090085 101.19060221553315 C 0.0 **** -0.24
34762 H 75.16857944379194 15.116398259114796 100.9650335533936 H 0.0 **** 0.06
34763 H 75.6912880954963 16.69021650245354 101.61210028296387 H 0.0 **** 0.06
34764 H 74.03410842640449 16.110635000361928 101.90984428926228 H 0.0 **** 0.06
34765 H 74.51707223617737 16.62232022645821 100.27514595329032 H 0.0 **** 0.06
34766 C 23.818525005076395 72.7813481781211 52.67319309480027 C 0.0 **** -0.24
34767 H 24.244849594296966 73.08315224752494 51.71649605924591 H 0.0 **** 0.06
34768 H 24.53614552837223 72.15981242665583 53.21024128384033 H 0.0 **** 0.06
34769 H 22.903745659022434 72.21361700154597 52.50076724587126 H 0.0 **** 0.06
34770 H 23.590114380376065 73.66703324961784 53.2647486871347 H 0.0 **** 0.06
34771 C 15.41334021999424 99.83284554757023 118.55537959860962 C 0.0 **** -0.24
34772 H 16.068195156875873 100.6810166221666 118.35608484199972 H 0.0 **** 0.06
34773 H 14.844826267471063 100.01908408577123 119.46699997530726 H 0.0 **** 0.06
34774 H 16.014857133608956 98.93199530208204 118.67854546937517 H 0.0 **** 0.06
34775 H 14.727147840298613 99.70008742326775 117.71862939758194 H 0.0 **** 0.06
34776 C 0.018331577247465702 42.42674018904302 108.58102384927025 C 0.0 **** -0.24
34777 H 0.19564073545933525 42.45724647788154 109.65652859365531 H 0.0 **** 0.06
34778 H 0.22217474967897033 41.422872045242514 108.20724940750864 H 0.0 **** 0.06
34779 H 0.6746690634063413 43.140323555200666 108.08398221091494 H 0.0 **** 0.06
34780 H -1.0209858432639578 42.68615729219363 108.37757193796199 H 0.0 **** 0.06
34781 C 64.33794068520018 79.97173621682472 107.6105954292687 C 0.0 **** -0.24
34782 H 65.23235594106791 79.94237797605294 108.23376400683429 H 0.0 **** 0.06
34783 H 64.55533256762016 80.51263765803779 106.68870060636189 H 0.0 **** 0.06
34784 H 63.536980126702986 80.47871757112065 108.14913390328067 H 0.0 **** 0.06
34785 H 64.02804070706668 78.95478961995087 107.37205374657376 H 0.0 **** 0.06
34786 C 22.684328187148182 101.74306690761878 67.46050256434248 C 0.0 **** -0.24
34787 H 23.210110177672433 101.22118551662385 66.66069777293583 H 0.0 **** 0.06
34788 H 21.664022967683234 101.36622296828338 67.53011190774558 H 0.0 **** 0.06
34789 H 22.66349596944473 102.8111490280796 67.2441644771674 H 0.0 **** 0.06
34790 H 23.20106185828395 101.5731084619886 68.40510248651427 H 0.0 **** 0.06
34791 C 99.0450970411099 85.39941321953552 40.59283450210836 C 0.0 **** -0.24
34792 H 99.82177347317514 84.72882389209033 40.959579921936495 H 0.0 **** 0.06
34793 H 99.38124254528083 86.43218875510348 40.69193818890665 H 0.0 **** 0.06
34794 H 98.13613258847127 85.25629080669947 41.17782272026733 H 0.0 **** 0.06
34795 H 98.8419217949095 85.18147713882234 39.54469223557862 H 0.0 **** 0.06
34796 C 2.041892494249794 15.754913127886766 40.896754746437125 C 0.0 **** -0.24
34797 H 3.0088720439925254 16.110212143372962 40.54144685782876 H 0.0 **** 0.06
34798 H 2.176908941027648 14.819962273558787 41.441629131543266 H 0.0 **** 0.06
34799 H 1.381609809718455 15.58802005308985 40.04529418432081 H 0.0 **** 0.06
34800 H 1.601238037803654 16.50075842288868 41.55802473207828 H 0.0 **** 0.06
34801 C 103.85009766971186 55.65808934133145 90.78148852995176 C 0.0 **** -0.24
34802 H 104.0860064760843 54.659918270213154 90.41102235888764 H 0.0 **** 0.06
34803 H 104.3684537790848 56.401239216161656 90.17495590905469 H 0.0 **** 0.06
34804 H 104.17247475955261 55.74617978397305 91.8184859231437 H 0.0 **** 0.06
34805 H 102.77497657045731 55.82468197477101 90.71892613354947 H 0.0 **** 0.06
34806 C 47.44508153655062 98.41452490672793 17.380915473010816 C 0.0 **** -0.24
34807 H 47.84508370339765 98.59401709073435 18.37807157919502 H 0.0 **** 0.06
34808 H 47.7828840347525 99.2019268641516 16.706562269189387 H 0.0 **** 0.06
34809 H 46.355862783108336 98.41381187782679 17.42141935208898 H 0.0 **** 0.06
34810 H 47.795540349440046 97.44856389602151 17.016589318715567 H 0.0 **** 0.06
34811 C 18.302843952661874 105.5892973129587 77.49497729991378 C 0.0 **** -0.24
34812 H 17.327700247231036 105.61652480443536 77.00820526348747 H 0.0 **** 0.06
34813 H 19.05282975783126 106.01800953259954 76.82901048955597 H 0.0 **** 0.06
34814 H 18.566131160729526 104.55550842615139 77.72223936367396 H 0.0 **** 0.06
34815 H 18.26426686851238 106.1657489338395 78.4190951969473 H 0.0 **** 0.06
34816 C 46.95972711981714 31.509853797087516 54.75061617981455 C 0.0 **** -0.24
34817 H 46.89444639388959 32.542768764230686 54.41065208239812 H 0.0 **** 0.06
34818 H 47.59455259321136 31.458161681176506 55.63478815044751 H 0.0 **** 0.06
34819 H 47.38686513484409 30.893552732313452 53.959122831785905 H 0.0 **** 0.06
34820 H 45.961940805331416 31.144655463946464 54.99706152841572 H 0.0 **** 0.06
34821 C 17.35184511016134 22.68316286126752 28.414130557626322 C 0.0 **** -0.24
34822 H 17.451468778819986 22.962203081873042 27.36550278357305 H 0.0 **** 0.06
34823 H 16.44620229278592 22.091043129571233 28.547730376413597 H 0.0 **** 0.06
34824 H 17.29228845260406 23.582589737455493 29.025786328816082 H 0.0 **** 0.06
34825 H 18.218119098227273 22.094699715803955 28.717312194020508 H 0.0 **** 0.06
34826 C 56.7072341799568 37.13159033218241 109.32697060222932 C 0.0 **** -0.24
34827 H 56.81202776933105 38.17929635543007 109.61232140099048 H 0.0 **** 0.06
34828 H 55.867756524938216 36.691569431889235 109.86511968386449 H 0.0 **** 0.06
34829 H 57.62212079516621 36.594526225757534 109.57763014592459 H 0.0 **** 0.06
34830 H 56.528686232072744 37.06385378309386 108.25420505837593 H 0.0 **** 0.06
34831 C 46.558520148075644 67.70557522632578 46.6029151505565 C 0.0 **** -0.24
34832 H 47.572405012076814 67.71155048911226 47.00365743271078 H 0.0 **** 0.06
34833 H 45.8602828710097 68.02543973994494 47.37724262966037 H 0.0 **** 0.06
34834 H 46.302720822047476 66.69825078279237 46.276380832441475 H 0.0 **** 0.06
34835 H 46.499166164084585 68.38857839444586 45.755050543266634 H 0.0 **** 0.06
34836 C 86.49759060317237 32.37225485240461 3.9752806602507462 C 0.0 **** -0.24
34837 H 85.94055560629533 31.704528867662397 3.318909938495551 H 0.0 **** 0.06
34838 H 85.81289585413668 32.840886209144195 4.682615346906331 H 0.0 **** 0.06
34839 H 86.98703799495556 33.14244609176044 3.3787018244363196 H 0.0 **** 0.06
34840 H 87.24985581761834 31.802869923894853 4.521160151175181 H 0.0 **** 0.06
34841 C 15.070047228967383 63.16585791596203 38.67894884834976 C 0.0 **** -0.24
34842 H 15.713006968676723 63.69255081359983 39.383475553846125 H 0.0 **** 0.06
34843 H 14.042681960582229 63.177310717573526 39.046554836591525 H 0.0 **** 0.06
34844 H 15.408135516884073 62.13428369680641 38.579759534362864 H 0.0 **** 0.06
34845 H 15.114045935071289 63.65924221894064 37.707908878418124 H 0.0 **** 0.06
34846 C 15.59643532752224 41.857354611664874 84.8319740016874 C 0.0 **** -0.24
34847 H 15.562605186808604 42.03084741911488 85.9069764503638 H 0.0 **** 0.06
34848 H 15.799582530752208 42.79806169692364 84.3184946294842 H 0.0 **** 0.06
34849 H 14.636940763222459 41.46082936212454 84.49797317257728 H 0.0 **** 0.06
34850 H 16.385384438154617 41.14143412915283 84.60380811749874 H 0.0 **** 0.06
34851 C 62.45665847137018 108.32180716013514 51.625562766600176 C 0.0 **** -0.24
34852 H 63.07976605055946 108.24213806329726 50.73505711238844 H 0.0 **** 0.06
34853 H 62.592063651995 107.43409680380398 52.24467537430424 H 0.0 **** 0.06
34854 H 61.411019321200676 108.40370241932624 51.33128837214094 H 0.0 **** 0.06
34855 H 62.744752761063346 109.20793141251812 52.19251615927082 H 0.0 **** 0.06
34856 C 40.35621496895794 12.997754905182653 51.353657890974915 C 0.0 **** -0.24
34857 H 41.28869091852812 12.514223664756841 51.64366077372456 H 0.0 **** 0.06
34858 H 40.2535369636833 12.966687024778182 50.268666361466416 H 0.0 **** 0.06
34859 H 40.36660346997223 14.034881000768419 51.68777773100064 H 0.0 **** 0.06
34860 H 39.5174684673442 12.476279000765537 51.8131768436095 H 0.0 **** 0.06
34861 C 26.001669049234366 107.55431520421851 80.86548285187672 C 0.0 **** -0.24
34862 H 25.50986440292315 108.43073380730257 81.28587446662362 H 0.0 **** 0.06
34863 H 25.252243370852888 106.80069455072368 80.61963585692484 H 0.0 **** 0.06
34864 H 26.70187325482061 107.14625703694614 81.59368070365787 H 0.0 **** 0.06
34865 H 26.541509700963395 107.83892604609966 79.96232433308967 H 0.0 **** 0.06
34866 C 62.34427676209134 101.0621174633716 47.5118643997713 C 0.0 **** -0.24
34867 H 62.32424260223749 101.57065808824277 46.54803369492021 H 0.0 **** 0.06
34868 H 63.375483046032 100.96798213914417 47.85258528809891 H 0.0 **** 0.06
34869 H 61.90369194889456 100.0700272109755 47.4086094899215 H 0.0 **** 0.06
34870 H 61.77239549363409 101.63935617816844 48.23858502431898 H 0.0 **** 0.06
34871 C 81.95803258010736 3.776712560592898 98.70494559045389 C 0.0 **** -0.24
34872 H 81.49526627119351 2.9968459981421347 99.30898450056216 H 0.0 **** 0.06
34873 H 81.35897191115717 4.6851794617374765 98.76455055967102 H 0.0 **** 0.06
34874 H 82.01618159418393 3.44658320919406 97.6674004504844 H 0.0 **** 0.06
34875 H 82.96265517395778 3.977638627355091 99.07798415338121 H 0.0 **** 0.06
34876 C 42.66032587840617 64.25922585312284 88.64516921516645 C 0.0 **** -0.24
34877 H 42.58426973008983 63.972073006848326 87.59606325339314 H 0.0 **** 0.06
34878 H 43.56184208416971 63.822107942871206 89.07640016231159 H 0.0 **** 0.06
34879 H 41.78654241670162 63.89808860172288 89.18547633616168 H 0.0 **** 0.06
34880 H 42.711690346658756 65.34560181829062 88.72078369937668 H 0.0 **** 0.06
34881 C 19.817673225135593 108.31356814719598 66.84320709146922 C 0.0 **** -0.24
34882 H 18.914172164483603 108.0036617659998 67.36689053551672 H 0.0 **** 0.06
34883 H 20.276738875671583 107.44792709567983 66.36596726506616 H 0.0 **** 0.06
34884 H 20.51862252992862 108.75068779335817 67.5553862431695 H 0.0 **** 0.06
34885 H 19.561269822539828 109.05422929473167 66.08457079438239 H 0.0 **** 0.06
34886 C 79.22806295095114 45.751795819475916 15.563013050000844 C 0.0 **** -0.24
34887 H 78.32323967427803 46.28016192141215 15.263457311158316 H 0.0 **** 0.06
34888 H 80.01884843891852 45.94583714809048 14.837247978333139 H 0.0 **** 0.06
34889 H 79.02713262865959 44.68091639620961 15.603644034008674 H 0.0 **** 0.06
34890 H 79.54357374359827 46.09910846970332 16.546536001489436 H 0.0 **** 0.06
34891 C 117.55656320442218 95.21973080840047 46.32626697599008 C 0.0 **** -0.24
34892 H 117.09016195837235 94.3945564866498 45.78929704371981 H 0.0 **** 0.06
34893 H 117.71152699862085 96.0553507033116 45.643299027199475 H 0.0 **** 0.06
34894 H 118.51609243692411 94.89554879144751 46.72812415571113 H 0.0 **** 0.06
34895 H 116.9080070575048 95.53385332861552 47.14355057788487 H 0.0 **** 0.06
34896 C 106.19274522219325 36.39892057877325 112.53379802597007 C 0.0 **** -0.24
34897 H 106.59829578795882 36.556621825736464 113.53263913516389 H 0.0 **** 0.06
34898 H 106.86581544703586 35.758081676283425 111.96396247008572 H 0.0 **** 0.06
34899 H 106.0904876671108 37.359080688534064 112.02778661960146 H 0.0 **** 0.06
34900 H 105.21489395135166 35.923070689533304 112.6096159669851 H 0.0 **** 0.06
34901 C 34.53791259960451 100.02911911412596 26.33038273228305 C 0.0 **** -0.24
34902 H 34.176455842049734 100.84228804098356 25.7007503860292 H 0.0 **** 0.06
34903 H 35.574512701013816 100.21836230016225 26.609348356941787 H 0.0 **** 0.06
34904 H 34.474778463334985 99.08965215181252 25.78106543753065 H 0.0 **** 0.06
34905 H 33.9242227807153 99.96677940493677 27.228690640723407 H 0.0 **** 0.06
34906 C 77.5130665798097 109.09603395498206 25.336717289323815 C 0.0 **** -0.24
34907 H 78.01865803225547 108.1524150195126 25.130736274570097 H 0.0 **** 0.06
34908 H 78.25572783100677 109.87737168373744 25.499816093836444 H 0.0 **** 0.06
34909 H 76.89468046084158 108.99041505968177 26.227908518565982 H 0.0 **** 0.06
34910 H 76.88416308552709 109.36303884833163 24.48690118950998 H 0.0 **** 0.06
34911 C 19.24971599411907 66.09118620115035 62.63623669628942 C 0.0 **** -0.24
34912 H 20.082394559800605 66.68483209601291 62.25825579944054 H 0.0 **** 0.06
34913 H 18.3675800286355 66.27013879581054 62.02284320177696 H 0.0 **** 0.06
34914 H 19.039379747285608 66.37660859266097 63.66719223300145 H 0.0 **** 0.06
34915 H 19.512554377698393 65.03397255729988 62.59867514616817 H 0.0 **** 0.06
34916 C 98.65347083518728 40.58573183903641 109.95306133462985 C 0.0 **** -0.24
34917 H 99.42747600299256 41.35293434886064 109.97422451153876 H 0.0 **** 0.06
34918 H 97.85931944070234 40.85192810881014 110.6514285340497 H 0.0 **** 0.06
34919 H 99.08385904818849 39.626258185195894 110.24085621810703 H 0.0 **** 0.06
34920 H 98.2423836580816 40.51219297671548 108.94610554965988 H 0.0 **** 0.06
34921 C 84.93453580408936 99.68993071931371 95.30964863195032 C 0.0 **** -0.24
34922 H 84.14269535966278 100.43813550514261 95.33472531597243 H 0.0 **** 0.06
34923 H 85.06452910766544 99.33186883222538 94.28779733914814 H 0.0 **** 0.06
34924 H 84.66667841361166 98.85440110003537 95.9566125115191 H 0.0 **** 0.06
34925 H 85.86664113291133 100.13527612271565 95.65897478336734 H 0.0 **** 0.06
34926 C 71.62575259135514 88.29404647511944 63.49152643573669 C 0.0 **** -0.24
34927 H 71.94544556387581 88.84069492253019 62.604168296755205 H 0.0 **** 0.06
34928 H 72.4646333760133 88.20515707122735 64.18338364661457 H 0.0 **** 0.06
34929 H 71.28524701845146 87.30020181915239 63.20289473599726 H 0.0 **** 0.06
34930 H 70.81080128249397 88.83194342259708 63.97465658022256 H 0.0 **** 0.06
34931 C 6.341587034809846 18.256383524735895 76.74467307256788 C 0.0 **** -0.24
34932 H 6.928749490732294 18.316668105215854 75.828447349864 H 0.0 **** 0.06
34933 H 5.557740416534317 19.013982075474246 76.72468499406398 H 0.0 **** 0.06
34934 H 6.990231931484242 18.4269647125343 77.60394336203399 H 0.0 **** 0.06
34935 H 5.890004338170925 17.26659981114142 76.82127540609233 H 0.0 **** 0.06
34936 C 61.87277414624583 9.390720862778721 96.52962897781063 C 0.0 **** -0.24
34937 H 60.948043174585564 9.896814982845115 96.25351866404017 H 0.0 **** 0.06
34938 H 61.993356733217354 8.495944877931208 95.9179996674049 H 0.0 **** 0.06
34939 H 61.832942591072424 9.109481056261188 97.58245766656742 H 0.0 **** 0.06
34940 H 62.716075397311556 10.060323863109602 96.3638781814945 H 0.0 **** 0.06
34941 C 23.47494938492197 116.22392782423636 59.13339507453793 C 0.0 **** -0.24
34942 H 24.456750001817653 116.5478282107531 59.47895934734595 H 0.0 **** 0.06
34943 H 23.593627232980808 115.4228639029142 58.402939870734826 H 0.0 **** 0.06
34944 H 22.957255848381322 117.06442068921258 58.67082320635188 H 0.0 **** 0.06
34945 H 22.89425415768197 115.86103142624566 59.98019003277739 H 0.0 **** 0.06
34946 C 95.76016171256282 58.83709191963589 103.5143558373565 C 0.0 **** -0.24
34947 H 95.28237012962117 59.798880224998975 103.32938828640943 H 0.0 **** 0.06
34948 H 96.84294237703821 58.966322067408676 103.53269295024782 H 0.0 **** 0.06
34949 H 95.49034690431535 58.139105637147075 102.72289479095159 H 0.0 **** 0.06
34950 H 95.42563598302229 58.44458266593073 104.47475086262043 H 0.0 **** 0.06
34951 C 13.451948715967305 20.016780327808306 111.27879286589834 C 0.0 **** -0.24
34952 H 13.640199788577892 20.12720836617727 112.34636848719958 H 0.0 **** 0.06
34953 H 12.740892739186066 19.20686586583588 111.11717446717196 H 0.0 **** 0.06
34954 H 14.387156295931522 19.78701462030844 110.7671668955156 H 0.0 **** 0.06
34955 H 13.04053973192568 20.945922343891056 110.88448419562002 H 0.0 **** 0.06
34956 C 112.60538743485212 42.43722782299427 86.36735212178775 C 0.0 **** -0.24
34957 H 112.81381643545001 43.366457061012575 86.89663926765556 H 0.0 **** 0.06
34958 H 113.54207462869815 41.91515071913329 86.16845704906513 H 0.0 **** 0.06
34959 H 112.10669005572213 42.66028029059703 85.42449897828513 H 0.0 **** 0.06
34960 H 111.96038758779927 41.80640341522854 86.97903695425344 H 0.0 **** 0.06
34961 C 8.138321874554606 92.03303411899702 46.67616495148602 C 0.0 **** -0.24
34962 H 7.806352702769516 91.75574794507457 45.67541151281644 H 0.0 **** 0.06
34963 H 8.598198959758378 91.16896459183835 47.15794561911658 H 0.0 **** 0.06
34964 H 7.281643730747419 92.36463517024288 47.26370978071691 H 0.0 **** 0.06
34965 H 8.86658950628808 92.84045982922675 46.607023871101944 H 0.0 **** 0.06
34966 C 4.814188201578247 106.43641271201534 34.14833584578681 C 0.0 **** -0.24
34967 H 3.8899886668610293 105.89465006313992 33.94456125371633 H 0.0 **** 0.06
34968 H 5.206242491831773 106.13319884851938 35.11980505864901 H 0.0 **** 0.06
34969 H 4.612880355647235 107.50793497000177 34.15644811924495 H 0.0 **** 0.06
34970 H 5.546383498483465 106.20984976371096 33.37317530803466 H 0.0 **** 0.06
34971 C 97.45731367719961 111.25054593578793 101.12830583860813 C 0.0 **** -0.24
34972 H 96.94702809349499 110.39985441109769 101.58091954847967 H 0.0 **** 0.06
34973 H 97.25679691159718 111.2659713120018 100.0566441846266 H 0.0 **** 0.06
34974 H 98.53033906042907 111.16110034535106 101.2955049350318 H 0.0 **** 0.06
34975 H 97.09489055663869 112.17385991750572 101.58007495376421 H 0.0 **** 0.06
34976 C 50.80431851063031 82.94246425571654 5.95141376855301 C 0.0 **** -0.24
34977 H 51.22028372732365 83.76277191129677 5.367390828751354 H 0.0 **** 0.06
34978 H 51.14526992523162 81.99294760744274 5.5380932275541 H 0.0 **** 0.06
34979 H 49.71527904007303 82.98517739503984 5.91356860357746 H 0.0 **** 0.06
34980 H 51.13504278518104 83.02879647682607 6.986470663252945 H 0.0 **** 0.06
34981 C 36.99542158245771 25.89703597264247 15.307372244793157 C 0.0 **** -0.24
34982 H 35.97009031209562 25.8831426585989 15.676565030997892 H 0.0 **** 0.06
34983 H 37.41479843297299 26.894365240720944 15.438326181144703 H 0.0 **** 0.06
34984 H 37.00398389650847 25.63443262905046 14.24962571285485 H 0.0 **** 0.06
34985 H 37.591759410807086 25.17534664274642 15.865365307225176 H 0.0 **** 0.06
34986 C 95.51737435339942 69.59451922156848 4.377781510967026 C 0.0 **** -0.24
34987 H 94.68132350422877 68.92923380179855 4.595131227937358 H 0.0 **** 0.06
34988 H 95.8400497224745 69.44770283168458 3.3475111259603523 H 0.0 **** 0.06
34989 H 96.3431324837428 69.37229894764477 5.053580461143312 H 0.0 **** 0.06
34990 H 95.20268034994967 70.62932739459154 4.517231749294552 H 0.0 **** 0.06
34991 C 78.9089774150334 2.816295316494683 117.66268298289559 C 0.0 **** -0.24
34992 H 78.04418213838517 2.3048104474382285 118.08570183208012 H 0.0 **** 0.06
34993 H 79.55150231935852 3.1701593928125984 118.46965051601 H 0.0 **** 0.06
34994 H 78.57428123046463 3.6635236100084825 117.06512697634894 H 0.0 **** 0.06
34995 H 79.46606057542976 2.123551036206994 117.03063679914817 H 0.0 **** 0.06
34996 C 115.0867263858316 35.09002955392893 30.0196173544134 C 0.0 **** -0.24
34997 H 115.98092693206733 34.731966472081055 29.509704847317373 H 0.0 **** 0.06
34998 H 114.21011592915704 34.58468352078936 29.61303264795719 H 0.0 **** 0.06
34999 H 114.98908804463171 36.165110481360635 29.87181590360062 H 0.0 **** 0.06
35000 H 115.16651405753139 34.87587905294943 31.085585967360288 H 0.0 **** 0.06
35001 C 66.10893715839393 118.18998497818143 5.031922185095459 C 0.0 **** -0.24
35002 H 65.72480528512239 118.23040834302904 6.050235550719828 H 0.0 **** 0.06
35003 H 65.74928349385993 119.05426730764236 4.4736472885466085 H 0.0 **** 0.06
35004 H 65.76228427678501 117.27545595003104 4.549362260022388 H 0.0 **** 0.06
35005 H 67.19937783619639 118.19865802957773 5.053148642687361 H 0.0 **** 0.06
35006 C 84.31681635388247 104.96514219392085 106.60256303004061 C 0.0 **** -0.24
35007 H 84.04507933420757 105.70952808500962 107.35045350265236 H 0.0 **** 0.06
35008 H 83.51590814564253 104.23141116633445 106.51256647816058 H 0.0 **** 0.06
35009 H 85.2365380094243 104.46508523211739 106.9052404964169 H 0.0 **** 0.06
35010 H 84.46959345463631 105.45628256200436 105.64101327773434 H 0.0 **** 0.06
35011 C 69.31214219328535 61.22772072407492 56.25359971207854 C 0.0 **** -0.24
35012 H 68.90878472583415 60.6988682571917 55.38998614266529 H 0.0 **** 0.06
35013 H 68.50901523896798 61.770257760987356 56.75336294380361 H 0.0 **** 0.06
35014 H 70.0765559674135 61.930684550394325 55.92412596837579 H 0.0 **** 0.06
35015 H 69.75209753880708 60.50971641843332 56.945624764831166 H 0.0 **** 0.06
35016 C 104.80765218643381 105.75119821480595 5.1398960324774805 C 0.0 **** -0.24
35017 H 104.01292580122117 106.430500345561 4.830902211524673 H 0.0 **** 0.06
35018 H 104.62759398956482 105.42477342782229 6.164696762923413 H 0.0 **** 0.06
35019 H 105.7663697950722 106.26674051994257 5.085231267365572 H 0.0 **** 0.06
35020 H 104.82249804178639 104.88550128291692 4.479064064931364 H 0.0 **** 0.06
35021 C 36.725468075978824 85.21077679985297 31.557085749183045 C 0.0 **** -0.24
35022 H 36.86674885615429 84.73230566400551 32.526431253795636 H 0.0 **** 0.06
35023 H 35.6630419203523 85.39403072601502 31.394195368138924 H 0.0 **** 0.06
35024 H 37.10753576785092 84.55932434330114 30.77192177173839 H 0.0 **** 0.06
35025 H 37.26545444786436 86.1574238619535 31.538069273576923 H 0.0 **** 0.06
35026 C 49.80412302616617 100.33144882355964 41.455450917819604 C 0.0 **** -0.24
35027 H 49.99572139817073 99.29600824299257 41.17163669509307 H 0.0 **** 0.06
35028 H 49.740701049569765 100.94790610374054 40.55909964303274 H 0.0 **** 0.06
35029 H 50.61690389069858 100.69081793802755 42.087798736708876 H 0.0 **** 0.06
35030 H 48.86396989811064 100.38863825619481 42.00448285008024 H 0.0 **** 0.06
35031 C 5.433797460241351 15.219142313132494 12.445234602840905 C 0.0 **** -0.24
35032 H 5.007972755277564 14.910034616068486 11.490932087829279 H 0.0 **** 0.06
35033 H 4.630403388485945 15.457298634377537 13.141814863329557 H 0.0 **** 0.06
35034 H 6.0597024570702445 16.098787158821466 12.295543453869865 H 0.0 **** 0.06
35035 H 6.038787396971912 14.407122712913633 12.85228999102134 H 0.0 **** 0.06
35036 C 85.37681971859766 97.05558303968911 27.125634141361616 C 0.0 **** -0.24
35037 H 84.46186136062838 97.22227077046449 26.557174845129225 H 0.0 **** 0.06
35038 H 85.1705218104681 97.17200876217919 28.189259899382705 H 0.0 **** 0.06
35039 H 86.13202164097979 97.77977379710177 26.819032750968034 H 0.0 **** 0.06
35040 H 85.74334123371855 96.04681410551024 26.934694874436985 H 0.0 **** 0.06
35041 C 108.852481468912 92.00392150631407 37.07365859416312 C 0.0 **** -0.24
35042 H 109.75975637921314 92.30057225954042 36.54834623145095 H 0.0 **** 0.06
35043 H 109.09685422261288 91.74721347669802 38.1045211093662 H 0.0 **** 0.06
35044 H 108.41322344186392 91.13792033847082 36.57836177473018 H 0.0 **** 0.06
35045 H 108.14009034531605 92.82921165223095 37.0627651251462 H 0.0 **** 0.06
35046 C 85.78369386940307 27.532552314905182 114.42016119784756 C 0.0 **** -0.24
35047 H 85.29702087741092 28.505974907861095 114.35218710358916 H 0.0 **** 0.06
35048 H 85.12843383420494 26.769180272472035 114.00080935046952 H 0.0 **** 0.06
35049 H 85.98894743121863 27.302910040895995 115.46626206982322 H 0.0 **** 0.06
35050 H 86.720187426855 27.554764809934163 113.86283454986727 H 0.0 **** 0.06
35051 C 14.298700153833668 91.93292213428543 37.6315123888019 C 0.0 **** -0.24
35052 H 14.101386012088511 92.69745377279975 36.87938398681586 H 0.0 **** 0.06
35053 H 14.858736358938653 91.11458367507339 37.17917935452968 H 0.0 **** 0.06
35054 H 13.353574410387203 91.55497393838775 38.02149965152346 H 0.0 **** 0.06
35055 H 14.880562002961462 92.36569431079678 38.44516685383339 H 0.0 **** 0.06
35056 C 92.7505644927906 28.21279255600109 21.276533240715523 C 0.0 **** -0.24
35057 H 93.29481798132667 27.346389233270543 20.9014279746181 H 0.0 **** 0.06
35058 H 93.26446131803164 28.615011419009818 22.14967103997685 H 0.0 **** 0.06
35059 H 91.73935900795752 27.91501663133232 21.553703822026506 H 0.0 **** 0.06
35060 H 92.70369649449017 28.97591509586607 20.498565344381262 H 0.0 **** 0.06
35061 C 18.513098099648005 74.82774116305222 64.40674878878778 C 0.0 **** -0.24
35062 H 17.711903003789757 75.26830306364943 63.81239260974734 H 0.0 **** 0.06
35063 H 19.404807582177 74.71717750338692 63.789912967233896 H 0.0 **** 0.06
35064 H 18.19863178026398 73.84955076612567 64.77038190480786 H 0.0 **** 0.06
35065 H 18.73533906798997 75.47608163423828 65.25408233095743 H 0.0 **** 0.06
35066 C 13.06527438679609 45.25291977194988 61.410236912534266 C 0.0 **** -0.24
35067 H 13.77159745595165 45.03634565590826 60.60850193689341 H 0.0 **** 0.06
35068 H 12.290202376137927 45.9241576777635 61.0394786897857 H 0.0 **** 0.06
35069 H 13.59143601791044 45.72858208186045 62.23800432288436 H 0.0 **** 0.06
35070 H 12.610139476276032 44.32538557393846 61.75482940119257 H 0.0 **** 0.06
35071 C 75.00699901540958 112.81385204583032 8.119870591073138 C 0.0 **** -0.24
35072 H 75.04808879469718 113.85591281636803 7.80153021095305 H 0.0 **** 0.06
35073 H 75.136982126464 112.1648390307115 7.2537885668639 H 0.0 **** 0.06
35074 H 74.04002258047979 112.61430129105801 8.58181717772987 H 0.0 **** 0.06
35075 H 75.8013328721382 112.6223954438515 8.840805830826923 H 0.0 **** 0.06
35076 C 35.563409862170495 52.83969738712099 72.96322698062662 C 0.0 **** -0.24
35077 H 36.0176082460235 53.83037667596349 72.9404025778758 H 0.0 **** 0.06
35078 H 34.4824146094401 52.93887980143353 73.06937674480011 H 0.0 **** 0.06
35079 H 35.96215836472152 52.276733551185885 73.80695081137225 H 0.0 **** 0.06
35080 H 35.79083807969935 52.314804129832254 72.03491394280152 H 0.0 **** 0.06
35081 C 35.22075970589478 38.53558201832297 45.780718995917084 C 0.0 **** -0.24
35082 H 35.471624778245456 38.814757394982564 44.75760494246805 H 0.0 **** 0.06
35083 H 35.29213046059809 39.41265322238897 46.42442073007618 H 0.0 **** 0.06
35084 H 35.91591087199404 37.771375984776995 46.12960954411284 H 0.0 **** 0.06
35085 H 34.20410352014656 38.14391387767745 45.81181286181868 H 0.0 **** 0.06
35086 C 102.85758621032852 46.53628637733934 71.98426692576726 C 0.0 **** -0.24
35087 H 102.13207243545622 46.954995350555606 72.6826595128839 H 0.0 **** 0.06
35088 H 103.35821656702564 47.34552594408123 71.45250180015788 H 0.0 **** 0.06
35089 H 102.34370173869542 45.89406370751675 71.2691261335568 H 0.0 **** 0.06
35090 H 103.59516445568988 45.95189791160976 72.5341205505936 H 0.0 **** 0.06
35091 C 115.358565533556 72.41164443958814 111.00477090174009 C 0.0 **** -0.24
35092 H 114.39696545768564 72.14482673273568 110.56786576836292 H 0.0 **** 0.06
35093 H 115.19669237260801 72.97228026439382 111.9254533252599 H 0.0 **** 0.06
35094 H 115.91899233802044 73.02530715658293 110.29896676614466 H 0.0 **** 0.06
35095 H 115.92208323581694 71.50489645964322 111.22568376993267 H 0.0 **** 0.06
35096 C 29.405580339199105 17.482700101145667 5.17576909823757 C 0.0 **** -0.24
35097 H 29.03103021081938 18.07425853428353 6.012192730200844 H 0.0 **** 0.06
35098 H 29.622929146905506 18.141666000378137 4.3348005828236715 H 0.0 **** 0.06
35099 H 28.650483369809876 16.75389745655545 4.880742223722439 H 0.0 **** 0.06
35100 H 30.314826372523953 16.963023845307845 5.477211934092287 H 0.0 **** 0.06
35101 C 111.99471647026142 5.598456961644331 84.25324160208567 C 0.0 **** -0.24
35102 H 111.80400606960232 5.580564219997484 83.18074316654528 H 0.0 **** 0.06
35103 H 111.95184632458322 4.583001303461458 84.64729557771128 H 0.0 **** 0.06
35104 H 111.2405157718807 6.212466195209913 84.74667711689412 H 0.0 **** 0.06
35105 H 112.98328593100257 6.019324240789103 84.43845974135996 H 0.0 **** 0.06
35106 C 49.49845878584247 74.7928997533663 79.5107452302093 C 0.0 **** -0.24
35107 H 50.26441517001362 74.02008833407871 79.58132103437981 H 0.0 **** 0.06
35108 H 48.541997808394854 74.3331384524306 79.26250845324307 H 0.0 **** 0.06
35109 H 49.77212501091549 75.5048665466467 78.73137771983829 H 0.0 **** 0.06
35110 H 49.41665375419896 75.31193959986211 80.46482281701776 H 0.0 **** 0.06
35111 C 54.56964479914956 90.45707297605216 61.474546387084054 C 0.0 **** -0.24
35112 H 55.63103531601524 90.68617431729089 61.56755332810042 H 0.0 **** 0.06
35113 H 54.311550154106754 90.35026252204287 60.421177875451725 H 0.0 **** 0.06
35114 H 53.98436034493355 91.2668592272035 61.912084957830466 H 0.0 **** 0.06
35115 H 54.351427064508385 89.5275098086413 61.99899355143669 H 0.0 **** 0.06
35116 C 78.56890521061317 90.32219797065343 37.936037273725184 C 0.0 **** -0.24
35117 H 77.75478668491604 90.36411448813743 37.212688407691154 H 0.0 **** 0.06
35118 H 79.30072652407912 89.57971480811753 37.61530064938902 H 0.0 **** 0.06
35119 H 78.17338056822982 90.04471086578252 38.91271515736318 H 0.0 **** 0.06
35120 H 79.0468522432626 91.29926414540148 38.001442552181096 H 0.0 **** 0.06
35121 C 12.933521016443962 114.30129831887808 64.14071047778268 C 0.0 **** -0.24
35122 H 13.55020891067349 113.69040889324873 64.80019947566106 H 0.0 **** 0.06
35123 H 13.01780265110584 113.93043230767864 63.11862405899509 H 0.0 **** 0.06
35124 H 13.273323042129704 115.33588138477654 64.18089746169696 H 0.0 **** 0.06
35125 H 11.893696400099032 114.24748235612833 64.46276507543399 H 0.0 **** 0.06
35126 C 65.43899446530008 8.47352013387615 0.2096825113078875 C 0.0 **** -0.24
35127 H 65.66733218532357 9.210714875918882 0.9788992034565887 H 0.0 **** 0.06
35128 H 65.92029645361657 7.527940705947316 0.45772779682490494 H 0.0 **** 0.06
35129 H 65.80764748706389 8.827786811442678 -0.7532036017393811 H 0.0 **** 0.06
35130 H 64.35995651159666 8.329696668527077 0.15485123048325988 H 0.0 **** 0.06
35131 C 47.85085243261385 45.61792792546527 92.50619690382678 C 0.0 **** -0.24
35132 H 47.647005063173424 46.40265613078549 93.23335805970646 H 0.0 **** 0.06
35133 H 48.13115215192059 44.70201296795585 93.02782465687417 H 0.0 **** 0.06
35134 H 48.66595703690081 45.92952841283835 91.85383264279108 H 0.0 **** 0.06
35135 H 46.956492363716876 45.43614555297512 91.90864530260873 H 0.0 **** 0.06
35136 C 111.6675441819416 6.585594359775314 41.34216284045391 C 0.0 **** -0.24
35137 H 111.09508219659128 7.14798700305937 42.08039072575406 H 0.0 **** 0.06
35138 H 111.13073727614626 6.5810162791763105 40.39296264111357 H 0.0 **** 0.06
35139 H 111.80161638949158 5.561773198307947 41.68925556173275 H 0.0 **** 0.06
35140 H 112.64304777152708 7.054859036508901 41.206582230324756 H 0.0 **** 0.06
35141 C 30.70806484029282 18.337940817012168 101.09961916170272 C 0.0 **** -0.24
35142 H 31.60991107319387 18.821825961757952 100.7263685339457 H 0.0 **** 0.06
35143 H 30.539462773959144 18.633978647005165 102.13521104070443 H 0.0 **** 0.06
35144 H 30.826323564871245 17.255275289754564 101.04532498482146 H 0.0 **** 0.06
35145 H 29.85515864201807 18.64104598491653 100.49252046219124 H 0.0 **** 0.06
35146 C 75.93973955735134 21.3915323157874 14.93035664288361 C 0.0 **** -0.24
35147 H 75.35213101516428 21.332768248369916 14.014623325793679 H 0.0 **** 0.06
35148 H 76.95071941382449 21.03081418905043 14.736470514278906 H 0.0 **** 0.06
35149 H 75.47563538867769 20.775580154281784 15.700676595415928 H 0.0 **** 0.06
35150 H 75.98200410562399 22.42695894087484 15.268847414984265 H 0.0 **** 0.06
35151 C 65.52501805776257 69.99515491218912 5.560703354870826 C 0.0 **** -0.24
35152 H 66.1127151606261 70.78079108993307 6.035269961906534 H 0.0 **** 0.06
35153 H 65.2316630676008 70.31577390143565 4.560352432546356 H 0.0 **** 0.06
35154 H 64.63294075682634 69.79945698541852 6.155754600311807 H 0.0 **** 0.06
35155 H 66.12257484128841 69.08689428200324 5.490603294800204 H 0.0 **** 0.06
35156 C 67.28786163506447 38.84006247119141 87.29004468787056 C 0.0 **** -0.24
35157 H 67.59175883921284 39.77073602918208 87.76808623859722 H 0.0 **** 0.06
35158 H 66.99932388687432 38.118156463851925 88.05486644944617 H 0.0 **** 0.06
35159 H 68.1191320925534 38.44102448076017 86.70881093430228 H 0.0 **** 0.06
35160 H 66.44078021007797 39.02934753325319 86.63121257352537 H 0.0 **** 0.06
35161 C 0.49060695443006175 69.79328585004302 115.37062308223602 C 0.0 **** -0.24
35162 H 1.1661993910565691 70.00768522976392 114.5428983087179 H 0.0 **** 0.06
35163 H 1.051108143796954 69.79284437015676 116.30640986023116 H 0.0 **** 0.06
35164 H 0.03153074943627665 68.81554906538415 115.22054492267694 H 0.0 **** 0.06
35165 H -0.28641046656943026 70.5570647348672 115.41263923731827 H 0.0 **** 0.06
35166 C 65.79729548514445 75.15274014556886 50.20320358504412 C 0.0 **** -0.24
35167 H 66.67660695910433 75.78281758295273 50.33716001650956 H 0.0 **** 0.06
35168 H 66.10643043888385 74.11085072996681 50.12113910154906 H 0.0 **** 0.06
35169 H 65.27261345605993 75.44899860144713 49.29533343065037 H 0.0 **** 0.06
35170 H 65.13395859966482 75.26842590084428 51.060076109938876 H 0.0 **** 0.06
35171 C 67.7175639261884 10.847321598464532 60.60200492350356 C 0.0 **** -0.24
35172 H 66.92043391806138 10.559692985069887 59.91654442553667 H 0.0 **** 0.06
35173 H 68.50560407616544 11.358024619200819 60.04716457907972 H 0.0 **** 0.06
35174 H 68.1270284258257 9.956664180896723 61.07669497980328 H 0.0 **** 0.06
35175 H 67.31827986623432 11.51530117707614 61.36467394974409 H 0.0 **** 0.06
35176 C 48.41048114127406 101.13222037365401 28.86001106413235 C 0.0 **** -0.24
35177 H 47.79879646787492 101.32101550943389 27.97766655103669 H 0.0 **** 0.06
35178 H 47.794186286657435 101.21696291256862 29.75573869868004 H 0.0 **** 0.06
35179 H 49.21931154668863 101.86195109900257 28.904238275105136 H 0.0 **** 0.06
35180 H 48.831423035654296 100.12808158955326 28.80138648630703 H 0.0 **** 0.06
35181 C 103.59907447545197 64.65761464496259 20.642575000313084 C 0.0 **** -0.24
35182 H 102.9962201129049 65.48458537403002 20.26651032862088 H 0.0 **** 0.06
35183 H 103.24847065363406 63.723984671816375 20.202484541134943 H 0.0 **** 0.06
35184 H 103.50743288698848 64.60589156842971 21.727311876189614 H 0.0 **** 0.06
35185 H 104.6435022974236 64.81828018703152 20.373413830441446 H 0.0 **** 0.06
35186 C 91.71556801703937 108.31161470544868 10.090300065085103 C 0.0 **** -0.24
35187 H 91.47707507371734 108.80306371084995 9.145923717482106 H 0.0 **** 0.06
35188 H 90.92029891480112 107.61159392827724 10.346853270941637 H 0.0 **** 0.06
35189 H 91.80916625330548 109.06125197032068 10.876141601235872 H 0.0 **** 0.06
35190 H 92.65760893913784 107.772095508734 9.989619683404015 H 0.0 **** 0.06
35191 C 77.43792920297227 70.38897258030403 106.6149080827048 C 0.0 **** -0.24
35192 H 77.64452497975316 71.19739851638917 105.9141619004701 H 0.0 **** 0.06
35193 H 77.27953646254778 70.80286697124615 107.61105605242824 H 0.0 **** 0.06
35194 H 78.28426349812702 69.70218773445913 106.63631891649112 H 0.0 **** 0.06
35195 H 76.54339187146115 69.85343709912152 106.29809546142985 H 0.0 **** 0.06
35196 C 21.832177882948145 21.069262907032908 21.32068828920663 C 0.0 **** -0.24
35197 H 22.438489882664157 20.167791949965817 21.401869375130417 H 0.0 **** 0.06
35198 H 22.362041138035323 21.81050199526709 20.72115079748508 H 0.0 **** 0.06
35199 H 21.64673576540872 21.473067459419724 22.316729331625453 H 0.0 **** 0.06
35200 H 20.88224927198253 20.827119585674893 20.844822996560453 H 0.0 **** 0.06
35201 C 64.29592952814662 107.18018947164444 47.72088904828769 C 0.0 **** -0.24
35202 H 64.59273746038977 106.13473606542647 47.80137360205987 H 0.0 **** 0.06
35203 H 65.18355056541444 107.80225569076248 47.610521394590194 H 0.0 **** 0.06
35204 H 63.754877627815574 107.47416893756065 48.62085268207767 H 0.0 **** 0.06
35205 H 63.651715237632374 107.30847939579905 46.85103146588864 H 0.0 **** 0.06
35206 C 92.98433785721113 27.54703677745944 92.35852956926104 C 0.0 **** -0.24
35207 H 93.6684269143204 26.784501149248655 91.98654955688647 H 0.0 **** 0.06
35208 H 93.31506651401796 27.88253762607158 93.34182878484202 H 0.0 **** 0.06
35209 H 91.98103364981301 27.12734480862501 92.43549009137274 H 0.0 **** 0.06
35210 H 92.97287138491174 28.391335598764698 91.66992842677985 H 0.0 **** 0.06
35211 C 1.8176885166797945 49.924815995426115 36.401956994487215 C 0.0 **** -0.24
35212 H 2.49356196333639 49.164558375283036 36.79309633774341 H 0.0 **** 0.06
35213 H 0.8134102546589475 49.75059663611023 36.78754657870307 H 0.0 **** 0.06
35214 H 1.803233395075864 49.87236565918272 35.31306599324039 H 0.0 **** 0.06
35215 H 2.161939861225335 50.911490190554616 36.71412472911742 H 0.0 **** 0.06
35216 C 110.94453115747484 83.22057535515455 98.16526054620692 C 0.0 **** -0.24
35217 H 109.92184594527555 83.27639043086504 98.53945736237785 H 0.0 **** 0.06
35218 H 111.53160433228223 84.03583328167878 98.58782196848853 H 0.0 **** 0.06
35219 H 110.93791729849676 83.30203209356458 97.07884416189381 H 0.0 **** 0.06
35220 H 111.38486860459923 82.26617681332687 98.45588916105325 H 0.0 **** 0.06
35221 C 111.62121143607862 12.104398558534797 68.27502482206563 C 0.0 **** -0.24
35222 H 112.08307756332596 11.99468276295184 67.29416924917498 H 0.0 **** 0.06
35223 H 112.01324911389878 12.997702869352366 68.76254457591861 H 0.0 **** 0.06
35224 H 111.84626599012108 11.229079833523514 68.88348606601105 H 0.0 **** 0.06
35225 H 110.54123520459103 12.197552341366361 68.15850739558718 H 0.0 **** 0.06
35226 C 103.04349290249107 64.88155421425438 112.83078271330112 C 0.0 **** -0.24
35227 H 102.481681887057 64.676708012002 111.91885176716005 H 0.0 **** 0.06
35228 H 103.89110218766439 64.19914324308866 112.895569658677 H 0.0 **** 0.06
35229 H 102.395771635312 64.74097185515922 113.69525263322276 H 0.0 **** 0.06
35230 H 103.40449528107644 65.90980357916965 112.81063101542861 H 0.0 **** 0.06
35231 C 103.7943649468792 0.30048899974619303 3.6131135423380556 C 0.0 **** -0.24
35232 H 103.03402515251724 -0.44727858854157887 3.838827093315331 H 0.0 **** 0.06
35233 H 103.74588950189488 1.101966829036897 4.35099636037387 H 0.0 **** 0.06
35234 H 103.61651495480382 0.7098755674382744 2.618217244717698 H 0.0 **** 0.06
35235 H 104.78033383588433 -0.16329309976407558 3.6446268773547104 H 0.0 **** 0.06
35236 C 111.41439075355106 13.40338408194759 37.69915431649706 C 0.0 **** -0.24
35237 H 112.25569010062316 13.592895840700326 38.36714486808569 H 0.0 **** 0.06
35238 H 110.65120871098074 14.167865189066923 37.85033788554651 H 0.0 **** 0.06
35239 H 110.99410303123705 12.422077189447624 37.91386212261733 H 0.0 **** 0.06
35240 H 111.75898226178705 13.433524877226148 36.66488700684954 H 0.0 **** 0.06
35241 C 83.17840042482891 13.916975676706386 73.87610462535383 C 0.0 **** -0.24
35242 H 83.66888889550415 12.997897071662408 73.55432334937836 H 0.0 **** 0.06
35243 H 82.67770855268094 14.379204585068038 73.02539924071851 H 0.0 **** 0.06
35244 H 83.92351015054965 14.603884387106632 74.27776182315978 H 0.0 **** 0.06
35245 H 82.44438081221182 13.684648985249964 74.64868677386434 H 0.0 **** 0.06
35246 C 68.1370711040135 21.023496357578153 45.60120915714738 C 0.0 **** -0.24
35247 H 68.68355242032882 20.083561054404754 45.52531875633099 H 0.0 **** 0.06
35248 H 67.42629968741784 21.09780467372019 44.77823113110833 H 0.0 **** 0.06
35249 H 68.83865035940156 21.855943487183367 45.55295090000117 H 0.0 **** 0.06
35250 H 67.60078722255943 21.05583550630928 46.550147725958816 H 0.0 **** 0.06
35251 C 23.02568761873374 45.85637738057767 14.15278305283045 C 0.0 **** -0.24
35252 H 22.933916163279775 45.18179781199268 15.004397408850924 H 0.0 **** 0.06
35253 H 22.127684343251474 45.7909027631234 13.538608200282862 H 0.0 **** 0.06
35254 H 23.89477905852948 45.57306777717926 13.557603745524975 H 0.0 **** 0.06
35255 H 23.148542845698728 46.87922093520319 14.51041175622779 H 0.0 **** 0.06
35256 C 39.88981612097757 74.22312982711702 41.44258826360576 C 0.0 **** -0.24
35257 H 40.63700193439115 73.97078903771379 40.690208006210895 H 0.0 **** 0.06
35258 H 38.997295835925 74.61144837445906 40.951342041068045 H 0.0 **** 0.06
35259 H 40.29300730235866 74.98060925374443 42.115479353109265 H 0.0 **** 0.06
35260 H 39.63212167218035 73.33107747146764 42.01333928148469 H 0.0 **** 0.06
35261 C 98.41911063396822 27.20510311749763 37.93602233555771 C 0.0 **** -0.24
35262 H 98.68428171949935 26.5120338590622 38.73404040050136 H 0.0 **** 0.06
35263 H 99.31985119430544 27.49682748845416 37.39402415629871 H 0.0 **** 0.06
35264 H 97.9506947032259 28.09152305362025 38.365337909133245 H 0.0 **** 0.06
35265 H 97.72221275061176 26.722181741076014 37.250754595761975 H 0.0 **** 0.06
35266 C 62.74744433051816 97.08194064130407 60.31065029689753 C 0.0 **** -0.24
35267 H 63.39717888678245 96.49547818119268 59.66043309951598 H 0.0 **** 0.06
35268 H 63.0121455453751 96.89514840925659 61.35230120239371 H 0.0 **** 0.06
35269 H 61.7097293403944 96.79349576002966 60.14216961953806 H 0.0 **** 0.06
35270 H 62.87115722496325 98.14152403077784 60.08827517950261 H 0.0 **** 0.06
35271 C 112.57747330829257 50.08466150744058 65.37147748520985 C 0.0 **** -0.24
35272 H 111.92758293094764 49.292287954836354 65.74312548189545 H 0.0 **** 0.06
35273 H 112.29158400573812 50.34079836860197 64.35088313191196 H 0.0 **** 0.06
35274 H 113.61231403669802 49.740698871823504 65.38270305108293 H 0.0 **** 0.06
35275 H 112.48016108915412 50.96364007636249 66.00799341215503 H 0.0 **** 0.06
35276 C 3.0455940868581024 11.882416520185814 97.78249271065562 C 0.0 **** -0.24
35277 H 3.817785363045857 11.384719472174652 97.19570070103475 H 0.0 **** 0.06
35278 H 2.7347491671716284 11.231541813246054 98.60025072681896 H 0.0 **** 0.06
35279 H 2.1881611534764147 12.100595361398405 97.14477615321937 H 0.0 **** 0.06
35280 H 3.440875618707395 12.8132387305468 98.1888337918125 H 0.0 **** 0.06
35281 C 52.692164758977015 22.08080274953707 80.3613804599625 C 0.0 **** -0.24
35282 H 53.454885161174076 21.414403039260463 79.9594656178063 H 0.0 **** 0.06
35283 H 52.59031317237631 21.912305033973013 81.43407725864881 H 0.0 **** 0.06
35284 H 51.739979613087726 21.88004759576407 79.87004818861294 H 0.0 **** 0.06
35285 H 52.98273958055651 23.11578563444698 80.18197239677352 H 0.0 **** 0.06
35286 C 0.37264819507570124 5.816194341330158 112.70479919298857 C 0.0 **** -0.24
35287 H 1.2569278108852622 5.8402371914193765 113.34239320754588 H 0.0 **** 0.06
35288 H -0.0774654808148103 4.823933586072712 112.74474767511934 H 0.0 **** 0.06
35289 H 0.6585503212914272 6.045824654406205 111.67793478583874 H 0.0 **** 0.06
35290 H -0.3477617246984508 6.556183041651879 113.05508037791236 H 0.0 **** 0.06
35291 C 85.49762876682479 51.74844456438486 87.38956076079842 C 0.0 **** -0.24
35292 H 84.80852435520964 51.89539162979769 88.22122249496852 H 0.0 **** 0.06
35293 H 85.46261252650893 50.70696611937811 87.06912182909127 H 0.0 **** 0.06
35294 H 86.50937879781011 51.99769274069179 87.70802070582715 H 0.0 **** 0.06
35295 H 85.20889146245014 52.39458556809739 86.56006983882895 H 0.0 **** 0.06
35296 C 8.064850140273677 39.544760038972726 104.87990878760056 C 0.0 **** -0.24
35297 H 8.369295798004885 40.400500324013166 104.27632362789302 H 0.0 **** 0.06
35298 H 8.461734779295512 39.65347875549473 105.88973473833548 H 0.0 **** 0.06
35299 H 8.452901901133828 38.629470727308075 104.43278029886 H 0.0 **** 0.06
35300 H 6.976488248691112 39.496998252511915 104.91939029827952 H 0.0 **** 0.06
35301 C 2.608739018562659 92.85600369156592 77.93938200176717 C 0.0 **** -0.24
35302 H 1.5678517456046706 92.60929724851118 78.15003151921172 H 0.0 **** 0.06
35303 H 2.7910826980117918 93.90196808806246 78.18878311321578 H 0.0 **** 0.06
35304 H 2.8127830485657483 92.69370119486209 76.88111998769341 H 0.0 **** 0.06
35305 H 3.261383900564951 92.21953496898223 78.53644293522154 H 0.0 **** 0.06
35306 C 56.180373821668724 47.53286999999955 43.85091567857066 C 0.0 **** -0.24
35307 H 56.095815580358504 48.349887127488216 43.135423960800665 H 0.0 **** 0.06
35308 H 57.233364415026955 47.30303800038678 44.01838723614989 H 0.0 **** 0.06
35309 H 55.674132250043556 46.65184524303885 43.45786816009539 H 0.0 **** 0.06
35310 H 55.71842758543434 47.82687777027644 44.79419970997739 H 0.0 **** 0.06
35311 C 105.79408546601758 87.03096391309586 44.48671531778816 C 0.0 **** -0.24
35312 H 106.67878752874299 86.56330352348033 44.055165132629185 H 0.0 **** 0.06
35313 H 105.83316765002525 88.10682031240813 44.316115904110305 H 0.0 **** 0.06
35314 H 105.76524465047703 86.83230578868708 45.55782394675237 H 0.0 **** 0.06
35315 H 104.90050528488825 86.61993298707426 44.01637327284464 H 0.0 **** 0.06
35316 C 50.5056150290971 97.60625904265584 6.7274688283091635 C 0.0 **** -0.24
35317 H 50.841176351847906 96.60048460413748 6.47534400582494 H 0.0 **** 0.06
35318 H 49.658202026231464 97.87469801902898 6.096226149952992 H 0.0 **** 0.06
35319 H 51.32031999964701 98.31241778040646 6.562134883977585 H 0.0 **** 0.06
35320 H 50.205020781808656 97.63781882359126 7.774233647866168 H 0.0 **** 0.06
35321 C 28.246758196567725 25.05259806897655 31.49291052889987 C 0.0 **** -0.24
35322 H 28.559172991239393 24.590867716972127 30.556230940627927 H 0.0 **** 0.06
35323 H 27.187194986234488 24.858539954114462 31.657488111030204 H 0.0 **** 0.06
35324 H 28.415349767390353 26.128380261252552 31.440822658649267 H 0.0 **** 0.06
35325 H 28.82641162779248 24.632962789333085 32.31493953364338 H 0.0 **** 0.06
35326 C 117.71339529289398 2.5728361686341543 90.51789165993813 C 0.0 **** -0.24
35327 H 116.69103533604023 2.9384570721045122 90.60941211836246 H 0.0 **** 0.06
35328 H 117.83581762415585 1.679168457976715 91.13020399158972 H 0.0 **** 0.06
35329 H 118.40670669895567 3.342736919946873 90.856185442022 H 0.0 **** 0.06
35330 H 117.92042588958613 2.330534723433658 89.47496741588023 H 0.0 **** 0.06
35331 C 53.080618010754876 32.76199795184186 30.391799227389697 C 0.0 **** -0.24
35332 H 52.98713976032235 31.868538606817594 31.008220933032277 H 0.0 **** 0.06
35333 H 53.893949728631696 32.62741484679589 29.677293389034077 H 0.0 **** 0.06
35334 H 53.29396305708008 33.62163476287637 31.02821661909948 H 0.0 **** 0.06
35335 H 52.147661653819796 32.931796792027114 29.85348759571633 H 0.0 **** 0.06
35336 C 38.42961003146553 71.68685273177798 78.78834577712087 C 0.0 **** -0.24
35337 H 38.63205702915627 72.66024317352085 78.34084397029562 H 0.0 **** 0.06
35338 H 38.225617051971994 71.81080969904062 79.8521470442576 H 0.0 **** 0.06
35339 H 39.297251205832026 71.03984665305589 78.65777197713345 H 0.0 **** 0.06
35340 H 37.56439329976979 71.23643177202965 78.30151463827227 H 0.0 **** 0.06
35341 C 10.701813091487537 106.85763890993832 53.2918858311923 C 0.0 **** -0.24
35342 H 11.027775892399205 107.15489503812603 52.29489252853875 H 0.0 **** 0.06
35343 H 11.558764900116898 106.8481352782909 53.96585681165732 H 0.0 **** 0.06
35344 H 10.26137199130062 105.86180484877477 53.24864584521595 H 0.0 **** 0.06
35345 H 9.959724268300192 107.5685155259963 53.65794770857701 H 0.0 **** 0.06
35346 C 23.60146022361016 80.74558436160154 44.50209215342687 C 0.0 **** -0.24
35347 H 24.53660578244194 81.29871146091475 44.58615600142764 H 0.0 **** 0.06
35348 H 23.30953081327334 80.37490807833387 45.485135862577295 H 0.0 **** 0.06
35349 H 23.736104653362304 79.90435755693755 43.821252244179504 H 0.0 **** 0.06
35350 H 22.823891062730638 81.40500402078538 44.11653219378775 H 0.0 **** 0.06
35351 C 6.351775707367807 76.7151612729987 43.211471155251374 C 0.0 **** -0.24
35352 H 7.2099042922459375 77.20876128504284 42.75517636386174 H 0.0 **** 0.06
35353 H 5.517105641941768 77.41432842355692 43.26511594364177 H 0.0 **** 0.06
35354 H 6.615755790397088 76.38517333910511 44.21635426486921 H 0.0 **** 0.06
35355 H 6.066497562672993 75.85294744725715 42.609123880213055 H 0.0 **** 0.06
35356 C 11.40732292218961 94.89649782029946 24.325435280727532 C 0.0 **** -0.24
35357 H 11.493591612175688 95.93024627493796 24.66144787933169 H 0.0 **** 0.06
35358 H 10.418481713155412 94.51422709917341 24.580528952709187 H 0.0 **** 0.06
35359 H 12.169739064396051 94.29043691078792 24.81498443834724 H 0.0 **** 0.06
35360 H 11.545564285411189 94.85253165253405 23.24525804774541 H 0.0 **** 0.06
35361 C 0.9357656848986426 109.33862043703917 91.52039575944994 C 0.0 **** -0.24
35362 H 0.561284019998423 108.80181256297968 90.64904317180554 H 0.0 **** 0.06
35363 H 0.15195309684712477 109.98784148569516 91.91180409039706 H 0.0 **** 0.06
35364 H 1.7976402930969755 109.94178110852165 91.23360667529832 H 0.0 **** 0.06
35365 H 1.2321581892087252 108.62341875015878 92.28805690388029 H 0.0 **** 0.06
35366 C 13.279627142198962 118.20216102779612 113.89508588049492 C 0.0 **** -0.24
35367 H 12.83050204008211 117.77594664768473 112.99812071768882 H 0.0 **** 0.06
35368 H 13.22257240356953 117.47823299611044 114.70876678057307 H 0.0 **** 0.06
35369 H 12.742267670354494 119.10743422131777 114.1754851348339 H 0.0 **** 0.06
35370 H 14.323428589866694 118.44482339056992 113.69772316567682 H 0.0 **** 0.06
35371 C 39.35583735502544 52.7368709417529 87.43217238208217 C 0.0 **** -0.24
35372 H 39.81703192611117 52.02019153115799 88.11180004951831 H 0.0 **** 0.06
35373 H 40.13344182585529 53.270321682291836 86.88485510287825 H 0.0 **** 0.06
35374 H 38.760981183837586 53.44877218112069 88.00405200827157 H 0.0 **** 0.06
35375 H 38.712903153832876 52.20800758205726 86.72937748789656 H 0.0 **** 0.06
35376 C 87.7058348563398 80.69902870743596 56.214224809718274 C 0.0 **** -0.24
35377 H 86.72709966747641 80.83452479934994 56.673699256406735 H 0.0 **** 0.06
35378 H 87.97425762400036 81.59752233945164 55.657245397132186 H 0.0 **** 0.06
35379 H 87.67337274699469 79.84660520216971 55.53520788364756 H 0.0 **** 0.06
35380 H 88.44982604240519 80.51656032877867 56.98990644436165 H 0.0 **** 0.06
35381 C 3.815895303108249 46.12933156570843 38.773583248323305 C 0.0 **** -0.24
35382 H 3.645506961157963 46.40482609757191 39.814925755171686 H 0.0 **** 0.06
35383 H 3.516070719954655 46.9542339525983 38.126993068776656 H 0.0 **** 0.06
35384 H 3.226618494373483 45.24495561998371 38.53157996602454 H 0.0 **** 0.06
35385 H 4.873197331392731 45.91387770133701 38.62253502684038 H 0.0 **** 0.06
35386 C 76.46300781340977 9.362992874415312 2.7149950545594095 C 0.0 **** -0.24
35387 H 75.59981033164564 9.39285878472424 3.380572064633057 H 0.0 **** 0.06
35388 H 76.4565412279699 10.245410575668018 2.0741582364054096 H 0.0 **** 0.06
35389 H 76.41489464466844 8.465984408815757 2.0975167054197215 H 0.0 **** 0.06
35390 H 77.37772521257105 9.349306405981821 3.30667762482301 H 0.0 **** 0.06
35391 C 59.91896000701328 84.42144837755436 95.89516082679864 C 0.0 **** -0.24
35392 H 60.746891849345616 83.83746135294962 95.4926504373648 H 0.0 **** 0.06
35393 H 59.06896742744544 83.76432523508953 96.08201217007945 H 0.0 **** 0.06
35394 H 59.63356078924258 85.18958396166613 95.17713678950466 H 0.0 **** 0.06
35395 H 60.22709912192175 84.89207509940584 96.82868068830396 H 0.0 **** 0.06
35396 C 64.82957899372184 56.10721745631107 72.2242449497245 C 0.0 **** -0.24
35397 H 64.2025360818127 56.86363478672332 71.75253045538776 H 0.0 **** 0.06
35398 H 64.7167371617519 55.161137723513384 71.69529939583134 H 0.0 **** 0.06
35399 H 64.52710006084652 55.98160544388927 73.26377064638754 H 0.0 **** 0.06
35400 H 65.87176099390996 56.42388777550379 72.18524306000614 H 0.0 **** 0.06
35401 C 49.957199318914014 21.594356088449786 60.10666139328558 C 0.0 **** -0.24
35402 H 49.284727338791384 20.763655868337906 59.88981301337256 H 0.0 **** 0.06
35403 H 50.28286116287572 21.536984349875667 61.1445546086301 H 0.0 **** 0.06
35404 H 49.43387960308473 22.536983352272472 59.940860334846235 H 0.0 **** 0.06
35405 H 50.82509363425149 21.53950900183429 59.44970948634807 H 0.0 **** 0.06
35406 C 20.434111697323544 67.40708172119568 95.2928383187049 C 0.0 **** -0.24
35407 H 21.20971285478177 68.17285486913309 95.29421373526586 H 0.0 **** 0.06
35408 H 20.810643501361795 66.50689761712559 95.77930001978578 H 0.0 **** 0.06
35409 H 20.153907056288176 67.17464611077352 94.26461328786326 H 0.0 **** 0.06
35410 H 19.56137799629923 67.77382174807536 95.83264307668998 H 0.0 **** 0.06
35411 C 92.2659549627466 115.56300797116921 14.005663307873618 C 0.0 **** -0.24
35412 H 91.96139624829871 115.51596363302588 15.050424187103118 H 0.0 **** 0.06
35413 H 93.33709078214991 115.7567858087015 13.948280562064923 H 0.0 **** 0.06
35414 H 91.72450998673145 116.36590306148267 13.504856547861152 H 0.0 **** 0.06
35415 H 92.0412380803628 114.61415173996744 13.518611215001414 H 0.0 **** 0.06
35416 C 66.98413701147868 46.8364539802358 84.95031733292595 C 0.0 **** -0.24
35417 H 66.44091090489019 46.60023916262833 84.03581939779701 H 0.0 **** 0.06
35418 H 68.03656189352319 46.57880250984414 84.82506459440611 H 0.0 **** 0.06
35419 H 66.56647595266344 46.26554841837893 85.77910536341892 H 0.0 **** 0.06
35420 H 66.89388734499013 47.902161159841285 85.1619628089598 H 0.0 **** 0.06
35421 C 19.528508482162124 59.834199220013716 96.91424041208819 C 0.0 **** -0.24
35422 H 20.242304302790274 59.93708121889347 96.096761724234 H 0.0 **** 0.06
35423 H 18.878639156335055 60.70909361480585 96.94107787207076 H 0.0 **** 0.06
35424 H 20.066760571280327 59.751635387618705 97.85832857305289 H 0.0 **** 0.06
35425 H 18.925869043805505 58.93860707904133 96.75951143002587 H 0.0 **** 0.06
35426 C 73.02660917023078 54.295577948126265 6.615674802252215 C 0.0 **** -0.24
35427 H 73.93453915339313 54.89294862926001 6.7025944304170935 H 0.0 **** 0.06
35428 H 72.87214851805552 54.02021031179035 5.571731689339487 H 0.0 **** 0.06
35429 H 72.17517911814147 54.87691558556681 6.969342695927395 H 0.0 **** 0.06
35430 H 73.12608511228578 53.393052856124655 7.219228114605386 H 0.0 **** 0.06
35431 C 102.73034681602999 87.13621596417227 100.01583071478694 C 0.0 **** -0.24
35432 H 102.23766255239929 88.07817104677582 100.25327188222866 H 0.0 **** 0.06
35433 H 102.20797524204491 86.31773624570417 100.51127845873575 H 0.0 **** 0.06
35434 H 103.76404358987617 87.16985310934129 100.36074682368181 H 0.0 **** 0.06
35435 H 102.7126078011849 86.9777701685008 98.9368386311034 H 0.0 **** 0.06
35436 C 93.5511418672221 34.24377976142031 78.70592605446964 C 0.0 **** -0.24
35437 H 94.45566519711144 33.666722651790906 78.89455035605815 H 0.0 **** 0.06
35438 H 92.78674337867506 33.96990965850813 79.43417997864441 H 0.0 **** 0.06
35439 H 93.18789149149188 34.03154953027476 77.70060121271402 H 0.0 **** 0.06
35440 H 93.7729308768931 35.30739395703074 78.79430058385569 H 0.0 **** 0.06
35441 C 39.74375950383279 32.70530446037026 25.952823490575128 C 0.0 **** -0.24
35442 H 39.49568313913025 32.78137101832667 24.894553904847157 H 0.0 **** 0.06
35443 H 38.87866477007441 32.333550354875726 26.502587620480767 H 0.0 **** 0.06
35444 H 40.01990026702529 33.689009881583175 26.332072053292535 H 0.0 **** 0.06
35445 H 40.57988587724327 32.018348677012696 26.082314764211702 H 0.0 **** 0.06
35446 C 20.720259590108014 6.178564371210429 105.41524494095984 C 0.0 **** -0.24
35447 H 20.012470994104405 6.610792293455916 104.70742226783904 H 0.0 **** 0.06
35448 H 20.739192759807764 6.779241731890298 106.32374520042407 H 0.0 **** 0.06
35449 H 21.714929677343264 6.161482563369683 104.96991563430277 H 0.0 **** 0.06
35450 H 20.414374260440127 5.1603485628569 105.65782969899959 H 0.0 **** 0.06
35451 C 102.23763758187451 86.62046257970303 62.27042776799587 C 0.0 **** -0.24
35452 H 103.3198934199163 86.52203529236192 62.18511687997193 H 0.0 **** 0.06
35453 H 101.76425146592868 86.19540253796168 61.38448860163675 H 0.0 **** 0.06
35454 H 101.97418709525311 87.67483563760578 62.35304650229753 H 0.0 **** 0.06
35455 H 101.89314415152515 86.08898378831668 63.156870135585194 H 0.0 **** 0.06
35456 C 90.58170753464191 87.88641138404847 112.10754250358423 C 0.0 **** -0.24
35457 H 90.38739358047741 88.67053260561815 112.83927166261202 H 0.0 **** 0.06
35458 H 89.6672412746122 87.31972930385663 111.93061460207802 H 0.0 **** 0.06
35459 H 91.35511560804747 87.2178687646931 112.48786524029995 H 0.0 **** 0.06
35460 H 90.91848014928729 88.33673571041842 111.17397796070583 H 0.0 **** 0.06
35461 C 88.84345731265566 97.30079261417808 107.18161008171143 C 0.0 **** -0.24
35462 H 88.93309062066353 96.33946315137331 107.68764872914272 H 0.0 **** 0.06
35463 H 88.83956519311974 98.10093985523457 107.92111650883555 H 0.0 **** 0.06
35464 H 87.91318720535284 97.32580317069545 106.61274132817269 H 0.0 **** 0.06
35465 H 89.68670024995359 97.43417326316452 106.50418739255221 H 0.0 **** 0.06
35466 C 104.33828775795845 89.95681027458642 10.373116536583492 C 0.0 **** -0.24
35467 H 104.72628430095395 88.94163667178418 10.293600693390797 H 0.0 **** 0.06
35468 H 103.25844775954869 89.92284082746153 10.514294322843945 H 0.0 **** 0.06
35469 H 104.56949304901508 90.50515545215956 9.459441923900314 H 0.0 **** 0.06
35470 H 104.80104820861385 90.45649585976787 11.223626147123934 H 0.0 **** 0.06
35471 C 27.015171674938202 115.09459970775634 20.9494071379998 C 0.0 **** -0.24
35472 H 26.962065520183593 114.17074948402956 20.37275203009085 H 0.0 **** 0.06
35473 H 26.03537627702822 115.31365445469832 21.374547822906493 H 0.0 **** 0.06
35474 H 27.320289423723608 115.9131208092636 20.296874395463078 H 0.0 **** 0.06
35475 H 27.742949708753933 114.98005647853643 21.752300350893165 H 0.0 **** 0.06
35476 C 89.65237514625849 80.91235296566373 82.76393853525957 C 0.0 **** -0.24
35477 H 89.66555588176942 81.29622588864748 81.7436805104025 H 0.0 **** 0.06
35478 H 88.8476836626078 81.39193336903611 83.32181474023074 H 0.0 **** 0.06
35479 H 90.60629710831253 81.12717139690466 83.24441063088403 H 0.0 **** 0.06
35480 H 89.4893974232811 79.83504671543531 82.74391250235837 H 0.0 **** 0.06
35481 C 43.90713619558488 42.647025024687736 114.43282837151877 C 0.0 **** -0.24
35482 H 44.004207735760474 41.7912033336587 115.10141640838661 H 0.0 **** 0.06
35483 H 43.47520308335555 42.32170155688354 113.48642993784074 H 0.0 **** 0.06
35484 H 44.8905915157938 43.081297081663166 114.25395701123972 H 0.0 **** 0.06
35485 H 43.25857297025658 43.39354707661087 114.89193421269266 H 0.0 **** 0.06
35486 C 41.109469415924764 64.58770040673434 10.224520570276791 C 0.0 **** -0.24
35487 H 41.9841438218005 64.84052931829413 9.62522031454343 H 0.0 **** 0.06
35488 H 40.652500521790614 65.5019435576572 10.603362839166884 H 0.0 **** 0.06
35489 H 41.41174716470323 63.957418748605164 11.06112190197181 H 0.0 **** 0.06
35490 H 40.38884838736254 64.05126379719957 9.606038757443589 H 0.0 **** 0.06
35491 C 31.142500602285615 109.07309230392858 98.38392265354938 C 0.0 **** -0.24
35492 H 31.379338941855238 110.01328523981103 98.8838301673683 H 0.0 **** 0.06
35493 H 30.064984290320808 108.99993493874902 98.23957198491797 H 0.0 **** 0.06
35494 H 31.484491131125992 108.2393410542094 98.99863316282509 H 0.0 **** 0.06
35495 H 31.643513629813576 109.04019992475415 97.41598739791439 H 0.0 **** 0.06
35496 C 41.04025990803527 34.19899407735721 103.94491017717564 C 0.0 **** -0.24
35497 H 40.75585722436048 35.16691732768493 104.35758833499042 H 0.0 **** 0.06
35498 H 41.70021125184215 34.34806604345334 103.08936331312321 H 0.0 **** 0.06
35499 H 40.14626396972173 33.662852797583696 103.62546159603306 H 0.0 **** 0.06
35500 H 41.55995185860721 33.617631847855534 104.70678866376326 H 0.0 **** 0.06
35501 C 43.125618124593814 33.640840675611656 79.6461252946676 C 0.0 **** -0.24
35502 H 42.85491966418272 33.19971952900045 80.60522540698986 H 0.0 **** 0.06
35503 H 42.238034702515165 34.071535390664764 79.1817920655703 H 0.0 **** 0.06
35504 H 43.53750724696215 32.86938353099899 78.99586321902686 H 0.0 **** 0.06
35505 H 43.870362314942156 34.420944591249935 79.80196015963367 H 0.0 **** 0.06
35506 C 85.16160617673921 40.897209686636856 30.372863225253184 C 0.0 **** -0.24
35507 H 84.53727010527962 40.64944207350567 29.514562441699013 H 0.0 **** 0.06
35508 H 86.17293801271174 40.52644900693154 30.205435581194763 H 0.0 **** 0.06
35509 H 84.74836674469557 40.4322478527485 31.268656343181533 H 0.0 **** 0.06
35510 H 85.18727180732978 41.978574278914635 30.50318359259842 H 0.0 **** 0.06
35511 C 22.321076323503362 22.968346903482455 17.064732345840525 C 0.0 **** -0.24
35512 H 22.979716893619326 23.643756530624586 16.518538226002818 H 0.0 **** 0.06
35513 H 21.283267639642247 23.248098708758874 16.88294222732307 H 0.0 **** 0.06
35514 H 22.53481109488149 23.03706225457114 18.13127358097779 H 0.0 **** 0.06
35515 H 22.487352480573094 21.9459545837922 16.725881740086407 H 0.0 **** 0.06
35516 C 29.69550038413928 8.704867831766474 19.798566571880066 C 0.0 **** -0.24
35517 H 30.295351019080613 7.991959975428273 20.36428308466053 H 0.0 **** 0.06
35518 H 29.753386759134003 8.466220416315586 18.736009646428144 H 0.0 **** 0.06
35519 H 30.075887691796396 9.713298058226101 19.96592437263958 H 0.0 **** 0.06
35520 H 28.65737606654602 8.647992877095948 20.128049183792047 H 0.0 **** 0.06
35521 C 4.387151679366411 24.70170621614767 78.87682331713563 C 0.0 **** -0.24
35522 H 3.9429028993069153 25.41912549852811 79.56719075280864 H 0.0 **** 0.06
35523 H 4.217885336335371 23.690568377332625 79.24634289114118 H 0.0 **** 0.06
35524 H 5.459206677834629 24.88715191061499 78.80061553736425 H 0.0 **** 0.06
35525 H 3.928751611511643 24.81195435330141 77.89418285312422 H 0.0 **** 0.06
35526 C 15.177253038175479 28.850903844945705 42.071055492825735 C 0.0 **** -0.24
35527 H 14.443362723288374 28.838770896907874 42.87697445587724 H 0.0 **** 0.06
35528 H 15.676665680644476 27.882877255293828 42.01921760773892 H 0.0 **** 0.06
35529 H 15.914150872414268 29.63075955424175 42.263217468242715 H 0.0 **** 0.06
35530 H 14.67347604675166 29.050808937455038 41.124800597167614 H 0.0 **** 0.06
35531 C 7.37443366273061 4.0154063140559515 115.43479804197094 C 0.0 **** -0.24
35532 H 7.337335028089797 4.02492521135639 116.52373174097588 H 0.0 **** 0.06
35533 H 6.442885552856509 4.418805039978423 115.03655412780637 H 0.0 **** 0.06
35534 H 7.506701283294348 2.9914397521226164 115.08492900381964 H 0.0 **** 0.06
35535 H 8.209848873912179 4.626707608622198 115.09498094154 H 0.0 **** 0.06
35536 C 46.349606717757695 12.783128561348661 104.86090018059278 C 0.0 **** -0.24
35537 H 46.007045449666805 13.644553591210666 105.43509990503739 H 0.0 **** 0.06
35538 H 47.42563220829894 12.663712134701768 104.99321615689283 H 0.0 **** 0.06
35539 H 46.12798168070923 12.939993160437126 103.80521631929477 H 0.0 **** 0.06
35540 H 45.83744748927298 11.887063560693406 105.21148684793485 H 0.0 **** 0.06
35541 C 28.860027205157763 14.496730413091598 0.4368523300337728 C 0.0 **** -0.24
35542 H 29.113331650234528 14.497423700336526 1.4972819506029964 H 0.0 **** 0.06
35543 H 29.004004612247797 13.495471554163174 0.029325834492382796 H 0.0 **** 0.06
35544 H 29.503455984646678 15.199767970867612 -0.09074323521247152 H 0.0 **** 0.06
35545 H 27.81840758930079 14.79340210517563 0.31220853058135845 H 0.0 **** 0.06
35546 C 83.54205394555743 55.49136842494232 11.2233191879414 C 0.0 **** -0.24
35547 H 83.73387276224904 55.47375700985634 10.149865404460968 H 0.0 **** 0.06
35548 H 83.43668969326026 54.46916124847553 11.589179181666452 H 0.0 **** 0.06
35549 H 82.62457694575286 56.04472966983843 11.418812780524945 H 0.0 **** 0.06
35550 H 84.37538686099114 55.97494964395827 11.733097600354654 H 0.0 **** 0.06
35551 C 22.220540570027723 86.30315311336102 61.44663982703012 C 0.0 **** -0.24
35552 H 21.598828375546777 87.18785372722033 61.31423793434583 H 0.0 **** 0.06
35553 H 23.158214111048437 86.58535404397634 61.92686333262606 H 0.0 **** 0.06
35554 H 22.4299936228472 85.8578393241952 60.47391394952647 H 0.0 **** 0.06
35555 H 21.695303114866 85.58016231455105 62.071527454270615 H 0.0 **** 0.06
35556 C 107.7146736527726 115.03446148865211 86.9282875193083 C 0.0 **** -0.24
35557 H 108.55894209623466 115.19095400801737 86.25818577230157 H 0.0 **** 0.06
35558 H 107.22034160309545 114.09519877722722 86.67685949402508 H 0.0 **** 0.06
35559 H 107.00873116438794 115.85780911196055 86.82068432316555 H 0.0 **** 0.06
35560 H 108.07145391348081 114.99277878006951 87.95784374412875 H 0.0 **** 0.06
35561 C 24.026722824079286 60.241079933692134 54.403729965441215 C 0.0 **** -0.24
35562 H 23.813358783203284 60.80181984760057 55.31415467217718 H 0.0 **** 0.06
35563 H 25.100987531857044 60.25076974627305 54.214380751024834 H 0.0 **** 0.06
35564 H 23.50587891334544 60.7011997722054 53.564093188718886 H 0.0 **** 0.06
35565 H 23.68772719322942 59.212736170406146 54.52219742449853 H 0.0 **** 0.06
35566 C 56.66162063617441 104.1181041160635 102.80349775885753 C 0.0 **** -0.24
35567 H 57.330550973794296 103.3271805112503 103.14405418138696 H 0.0 **** 0.06
35568 H 56.75252017786385 104.22932463727216 101.7231432705484 H 0.0 **** 0.06
35569 H 56.930113451149815 105.0556614874819 103.29058026461496 H 0.0 **** 0.06
35570 H 55.634721672857616 103.85752806093865 103.05746456504878 H 0.0 **** 0.06
35571 C 82.11141132868508 100.42277602968497 97.63184221904322 C 0.0 **** -0.24
35572 H 81.95868685727723 101.07271501382812 96.77087702940253 H 0.0 **** 0.06
35573 H 82.40317062124163 99.42968140156918 97.2895292488322 H 0.0 **** 0.06
35574 H 81.18619717082245 100.35330025770168 98.20315684201177 H 0.0 **** 0.06
35575 H 82.89964627693521 100.83527602469425 98.26248003306782 H 0.0 **** 0.06
35576 C 43.51089505410225 34.730863445192796 25.41979246484925 C 0.0 **** -0.24
35577 H 44.19918247772441 35.419717481460026 24.928270124598555 H 0.0 **** 0.06
35578 H 42.59116382830779 35.25655361629029 25.675792205721493 H 0.0 **** 0.06
35579 H 43.97358986172152 34.343034646512166 26.327345719460027 H 0.0 **** 0.06
35580 H 43.28257623368919 33.90453077656997 24.746259662782222 H 0.0 **** 0.06
35581 C 74.00919262466007 27.691418386281896 111.04790834432816 C 0.0 **** -0.24
35582 H 74.9756819460815 27.187191157016542 111.04570002922259 H 0.0 **** 0.06
35583 H 74.09120321662834 28.635174712383076 110.50671618150287 H 0.0 **** 0.06
35584 H 73.7029544553395 27.88729982849287 112.07519368747015 H 0.0 **** 0.06
35585 H 73.2680629884546 27.057017018873438 110.56143495996253 H 0.0 **** 0.06
35586 C 22.193969955032237 55.36538455298401 75.24987525894491 C 0.0 **** -0.24
35587 H 21.29903754447305 55.39296494814178 74.62881179236703 H 0.0 **** 0.06
35588 H 22.05694473110726 56.015288807221424 76.11397716336577 H 0.0 **** 0.06
35589 H 23.050025649687385 55.7080317811955 74.66896126335047 H 0.0 **** 0.06
35590 H 22.369674497795238 54.343061591095505 75.58735022106478 H 0.0 **** 0.06
35591 C 59.12942889224709 109.34941833079168 38.13547361528592 C 0.0 **** -0.24
35592 H 59.53750529639544 109.5087824458196 39.13369418808736 H 0.0 **** 0.06
35593 H 59.41165901559154 110.18149987338035 37.48986918909668 H 0.0 **** 0.06
35594 H 58.0431412800925 109.28672264270293 38.1948369616031 H 0.0 **** 0.06
35595 H 59.52556157479361 108.41979354603504 37.72554644036046 H 0.0 **** 0.06
35596 C 8.698459193644453 52.021435539361505 102.8194848572819 C 0.0 **** -0.24
35597 H 8.884498421511694 51.0038533845817 102.47744615625791 H 0.0 **** 0.06
35598 H 8.357237742295752 51.99981111119634 103.85430989300741 H 0.0 **** 0.06
35599 H 7.933827081749371 52.48199489518498 102.19336472224421 H 0.0 **** 0.06
35600 H 9.620254377574213 52.600090580141824 102.75309508516563 H 0.0 **** 0.06
35601 C 51.99205237654684 15.757597392001003 59.01540644824743 C 0.0 **** -0.24
35602 H 51.22635014798328 16.00147482669098 58.27937762488716 H 0.0 **** 0.06
35603 H 51.653717045633755 16.061529919801558 60.005930948054726 H 0.0 **** 0.06
35604 H 52.91367571097737 16.28397281830206 58.76848162160289 H 0.0 **** 0.06
35605 H 52.17356005290753 14.682581496174805 59.00713663874484 H 0.0 **** 0.06
35606 C 26.72158056153225 52.8701502377063 114.10347747547692 C 0.0 **** -0.24
35607 H 27.075929469474573 52.809256833478514 115.13244997814031 H 0.0 **** 0.06
35608 H 26.931974403606972 51.93177945577992 113.58985961587477 H 0.0 **** 0.06
35609 H 27.23039920647122 53.68666917318254 113.59166505716989 H 0.0 **** 0.06
35610 H 25.646631761870964 53.05314726558203 114.10004403281559 H 0.0 **** 0.06
35611 C 78.66089892100416 116.16552001300305 85.36111909954411 C 0.0 **** -0.24
35612 H 77.96894918470522 116.81118244140869 84.82069136267461 H 0.0 **** 0.06
35613 H 78.59944456213898 115.15318622967168 84.962548899723 H 0.0 **** 0.06
35614 H 78.39849826312789 116.15728582894067 86.41956169495171 H 0.0 **** 0.06
35615 H 79.67726920072516 116.54260149441541 85.24264696614301 H 0.0 **** 0.06
35616 C 63.08638502096596 12.467446026769466 1.5996114787392486 C 0.0 **** -0.24
35617 H 62.42453424027053 13.142634421032312 2.1422354378793926 H 0.0 **** 0.06
35618 H 63.642108543035306 13.030038324107096 0.849471598409508 H 0.0 **** 0.06
35619 H 62.49396980904436 11.694285909516282 1.1104497328188359 H 0.0 **** 0.06
35620 H 63.783185841321426 12.003829910012627 2.2985158579055422 H 0.0 **** 0.06
35621 C 50.520365762631485 90.00367841313877 86.13438229120186 C 0.0 **** -0.24
35622 H 50.84534747003961 90.8771360754132 86.69969474665294 H 0.0 **** 0.06
35623 H 50.11639638043141 89.25714545241499 86.81853203579124 H 0.0 **** 0.06
35624 H 51.369518076497116 89.58291198543893 85.59615695536638 H 0.0 **** 0.06
35625 H 49.749063844559515 90.29914636885172 85.42170934718149 H 0.0 **** 0.06
35626 C 75.07029675209557 48.09350284663026 45.12134295240867 C 0.0 **** -0.24
35627 H 75.2484912145384 48.526732953929184 46.105565477473874 H 0.0 **** 0.06
35628 H 75.85708625221207 47.37483877590711 44.8929862590071 H 0.0 **** 0.06
35629 H 75.06931365966133 48.884368623520345 44.371752476242364 H 0.0 **** 0.06
35630 H 74.10381782781434 47.588783712326745 45.117381044276385 H 0.0 **** 0.06
35631 C 105.43778095014517 90.03342084401203 83.96017074448801 C 0.0 **** -0.24
35632 H 105.59737205401188 89.09072451285601 83.43699117496527 H 0.0 **** 0.06
35633 H 106.30738901929789 90.25737283505745 84.5784998770649 H 0.0 **** 0.06
35634 H 104.55329124993085 89.95435006408755 84.59187029559041 H 0.0 **** 0.06
35635 H 105.2933659494683 90.8330916687591 83.23210921993086 H 0.0 **** 0.06
35636 C 75.06008972375778 81.624875101013 109.98999863342723 C 0.0 **** -0.24
35637 H 74.42384236484753 81.19332943965247 109.21713304035677 H 0.0 **** 0.06
35638 H 76.04565654472376 81.15988554062537 109.95052232801368 H 0.0 **** 0.06
35639 H 74.6137504722133 81.44841593044748 110.96812282963715 H 0.0 **** 0.06
35640 H 75.15702902299427 82.6979497617445 109.8228066565122 H 0.0 **** 0.06
35641 C 55.935760280713 105.22274843933016 26.7741290101213 C 0.0 **** -0.24
35642 H 56.021786682725406 105.0628088069096 27.848380971589222 H 0.0 **** 0.06
35643 H 56.90609943849313 105.05962130229199 26.303696118340923 H 0.0 **** 0.06
35644 H 55.60590487111733 106.24406979172534 26.5839220916302 H 0.0 **** 0.06
35645 H 55.20894295277964 104.52354457672968 26.360584449724996 H 0.0 **** 0.06
35646 C 7.502977107753225 17.961417730366435 9.558136856094954 C 0.0 **** -0.24
35647 H 6.814450033484491 17.36855030860614 10.160811143724178 H 0.0 **** 0.06
35648 H 7.299845777625745 17.788494695768804 8.50092405792369 H 0.0 **** 0.06
35649 H 8.527642534469166 17.669169337997634 9.784680727835863 H 0.0 **** 0.06
35650 H 7.366545993520649 19.0184829691234 9.786704591275761 H 0.0 **** 0.06
35651 C 1.2034960823091296 1.7795399491146213 18.556926264067044 C 0.0 **** -0.24
35652 H 1.899931230810168 2.113454214436146 17.786942503009982 H 0.0 **** 0.06
35653 H 1.6157870844964037 0.9081920167781163 19.065739079028845 H 0.0 **** 0.06
35654 H 0.25202194999781113 1.516443915277108 18.09576797422892 H 0.0 **** 0.06
35655 H 1.049269969956768 2.581883009341766 19.278509589975783 H 0.0 **** 0.06
35656 C 9.621980830548921 97.88971233305261 99.88156230015545 C 0.0 **** -0.24
35657 H 9.552270922427567 96.95507059625226 100.43791642525713 H 0.0 **** 0.06
35658 H 8.706559630790565 98.04101514923514 99.3086067029376 H 0.0 **** 0.06
35659 H 10.473219798036865 97.84526562389522 99.20218002050342 H 0.0 **** 0.06
35660 H 9.755702533600129 98.71679506972703 100.57823666828654 H 0.0 **** 0.06
35661 C 99.05916719337253 35.419231498082155 12.614904179181167 C 0.0 **** -0.24
35662 H 100.05397278965768 35.32231968912069 12.179393523661446 H 0.0 **** 0.06
35663 H 98.37955358650956 35.84555371117574 11.87663775165609 H 0.0 **** 0.06
35664 H 99.10677983984098 36.07307009614625 13.485114286248233 H 0.0 **** 0.06
35665 H 98.6975106859883 34.43718672361416 12.916977190867811 H 0.0 **** 0.06
35666 C 25.329938182235566 21.11376512701574 90.08361787453072 C 0.0 **** -0.24
35667 H 24.249142881302447 21.05305646587007 89.95657246564434 H 0.0 **** 0.06
35668 H 25.614516419676306 22.1488282199861 90.2735104940977 H 0.0 **** 0.06
35669 H 25.82287393656337 20.760972665800352 89.17723415777567 H 0.0 **** 0.06
35670 H 25.632355239582594 20.49244797904312 90.92671484763622 H 0.0 **** 0.06
35671 C 61.33520388972272 13.45409118999288 77.02231853746747 C 0.0 **** -0.24
35672 H 61.192899769134954 12.373381970230497 77.05697057673603 H 0.0 **** 0.06
35673 H 62.07779743271047 13.698219477320123 76.26151574984942 H 0.0 **** 0.06
35674 H 61.68087385374076 13.80670963576273 77.99328712056473 H 0.0 **** 0.06
35675 H 60.38997429624058 13.937303294389636 76.7743534860345 H 0.0 **** 0.06
35676 C 102.73513058690847 93.07033908384835 97.71068979717367 C 0.0 **** -0.24
35677 H 102.35402609627272 92.07848985725599 97.95139289288451 H 0.0 **** 0.06
35678 H 103.35567766050875 93.01376207868836 96.81571269738396 H 0.0 **** 0.06
35679 H 103.33157826682799 93.4428537339164 98.54369135044405 H 0.0 **** 0.06
35680 H 101.8999453512547 93.746610100553 97.53042149532655 H 0.0 **** 0.06
35681 C 68.9531067253914 20.073889030179657 99.76231572646023 C 0.0 **** -0.24
35682 H 69.77291653269745 20.79004455013751 99.69919069163143 H 0.0 **** 0.06
35683 H 68.80005862679818 19.788596902782217 100.80342873071234 H 0.0 **** 0.06
35684 H 69.1986150225986 19.188988117825545 99.17488774134011 H 0.0 **** 0.06
35685 H 68.04330250594631 20.52959617688674 99.37139136590287 H 0.0 **** 0.06
35686 C 97.46458795376907 104.0624421303088 31.450879651512878 C 0.0 **** -0.24
35687 H 97.37823375482878 103.20666891654707 32.12015814873706 H 0.0 **** 0.06
35688 H 96.4766292502643 104.33128154381825 31.076503420834655 H 0.0 **** 0.06
35689 H 98.11278695584087 103.80346822162937 30.612973804417607 H 0.0 **** 0.06
35690 H 97.89148115596777 104.90569180714226 31.992730808071656 H 0.0 **** 0.06
35691 C 21.756185237120803 76.13143933989534 45.64798172916806 C 0.0 **** -0.24
35692 H 22.600404555225225 75.45401506780956 45.77316407465672 H 0.0 **** 0.06
35693 H 21.66903409247351 76.76982196039842 46.5267028617255 H 0.0 **** 0.06
35694 H 20.840551423983413 75.55195632620533 45.526093332026385 H 0.0 **** 0.06
35695 H 21.91482750807677 76.74888294894043 44.76376987871943 H 0.0 **** 0.06
35696 C 5.37271155102701 98.01458983536014 75.32696357660717 C 0.0 **** -0.24
35697 H 5.792399146872697 98.27872355458646 76.29833495222164 H 0.0 **** 0.06
35698 H 4.33124725286018 98.33608529613142 75.2817920427402 H 0.0 **** 0.06
35699 H 5.42671981345984 96.93513852670475 75.18972844087719 H 0.0 **** 0.06
35700 H 5.9402407045855625 98.5101332893328 74.5394060216137 H 0.0 **** 0.06
35701 C 65.356080781673 67.89063064444093 13.534401861161143 C 0.0 **** -0.24
35702 H 66.39781430304865 68.1487359178829 13.344779898266154 H 0.0 **** 0.06
35703 H 64.71005097894201 68.6708075912226 13.132396926177591 H 0.0 **** 0.06
35704 H 65.19360165352794 67.8021866461296 14.609347839636882 H 0.0 **** 0.06
35705 H 65.12398583044106 66.94109607800604 13.053235002631112 H 0.0 **** 0.06
35706 C 69.94863709018551 1.6325340670298267 40.117306937779546 C 0.0 **** -0.24
35707 H 69.7168947827592 2.039465763781779 41.10184017525495 H 0.0 **** 0.06
35708 H 69.8858734700953 2.4260506362827634 39.37308404453654 H 0.0 **** 0.06
35709 H 69.23388185288636 0.84642169788507 39.87237448542302 H 0.0 **** 0.06
35710 H 70.95650244604167 1.2177374910388945 40.12361421203153 H 0.0 **** 0.06
35711 C 3.7731348287675246 117.7850040799376 97.62966089503587 C 0.0 **** -0.24
35712 H 3.679940076997866 116.91406762985389 98.27832413600379 H 0.0 **** 0.06
35713 H 4.314887147624518 118.5725325431868 98.15565428504237 H 0.0 **** 0.06
35714 H 2.7800032615466534 118.14511457992177 97.36059453918969 H 0.0 **** 0.06
35715 H 4.317360062935961 117.51002633114814 96.72688205981362 H 0.0 **** 0.06
35716 C 37.58786597353563 110.54445731023687 73.27733475747664 C 0.0 **** -0.24
35717 H 36.697383769457076 110.39288634944727 73.88703077310095 H 0.0 **** 0.06
35718 H 38.22545977714259 111.29370709359014 73.74579652683303 H 0.0 **** 0.06
35719 H 37.29468603758971 110.8854159661633 72.28390315513178 H 0.0 **** 0.06
35720 H 38.13374219985735 109.60449385258252 73.19215581653424 H 0.0 **** 0.06
35721 C 3.715082042276137 81.87736648060161 54.06971495788784 C 0.0 **** -0.24
35722 H 2.913881804445097 81.23334315712111 53.70689858576165 H 0.0 **** 0.06
35723 H 4.675676999290644 81.48574891378075 53.73496194013836 H 0.0 **** 0.06
35724 H 3.692320828895916 81.9052685018836 55.15867313727309 H 0.0 **** 0.06
35725 H 3.5764148852392026 82.88407892341644 53.6774255778745 H 0.0 **** 0.06
35726 C 111.07396597349006 21.672320704571234 104.18604783259826 C 0.0 **** -0.24
35727 H 111.2407033474484 20.821101517302253 104.84659014545193 H 0.0 **** 0.06
35728 H 110.10695547596572 21.564512283904207 103.6929061513357 H 0.0 **** 0.06
35729 H 111.86285884962552 21.709510130959927 103.43539378851841 H 0.0 **** 0.06
35730 H 111.08414273077958 22.59212815397362 104.76995553079408 H 0.0 **** 0.06
35731 C 36.69389690499012 68.16825202575134 61.15846574535805 C 0.0 **** -0.24
35732 H 37.379441713996435 68.79627694226377 61.72625048456623 H 0.0 **** 0.06
35733 H 35.79259405094636 67.99134241929033 61.744643769215195 H 0.0 **** 0.06
35734 H 37.17508270224585 67.21612279015758 60.9346226710395 H 0.0 **** 0.06
35735 H 36.4298862105298 68.66942597155449 60.22662366478088 H 0.0 **** 0.06
35736 C 115.2352176197534 34.48620670866484 34.538780584939275 C 0.0 **** -0.24
35737 H 115.46473919217013 35.31588852268766 35.20680637645174 H 0.0 **** 0.06
35738 H 116.00393298757504 33.71915998154327 34.63539632450431 H 0.0 **** 0.06
35739 H 115.20666248889427 34.84535216313279 33.50982687253756 H 0.0 **** 0.06
35740 H 114.26465596539987 34.064185332602904 34.803502558931285 H 0.0 **** 0.06
35741 C 23.51929289000674 64.47225582227347 62.5052658858167 C 0.0 **** -0.24
35742 H 24.59282003666675 64.6495787925758 62.57201627056838 H 0.0 **** 0.06
35743 H 23.15979020350602 64.06002878971896 63.44860162512916 H 0.0 **** 0.06
35744 H 23.317290096773547 63.76618412928848 61.699967686273936 H 0.0 **** 0.06
35745 H 23.00723841637 65.41229218120927 62.300819306965536 H 0.0 **** 0.06
35746 C 64.18021948638591 20.257092504452032 0.08791979241092918 C 0.0 **** -0.24
35747 H 63.768025281841155 21.17733695658262 0.5014371858522537 H 0.0 **** 0.06
35748 H 63.775702435388474 20.095405199294134 -0.9119871168392706 H 0.0 **** 0.06
35749 H 63.909683621633285 19.417985135888784 0.729265073141903 H 0.0 **** 0.06
35750 H 65.26551458539254 20.33733529679779 0.03265526482201153 H 0.0 **** 0.06
35751 C 4.67543445456721 83.2033036154715 67.50222291356414 C 0.0 **** -0.24
35752 H 4.2848428816520965 83.26103713726565 68.51828425176552 H 0.0 **** 0.06
35753 H 5.2816914883166675 84.08599917495917 67.29586982659922 H 0.0 **** 0.06
35754 H 3.845837029182576 83.15793081020286 66.79632418305684 H 0.0 **** 0.06
35755 H 5.289267794750444 82.30803538719064 67.40012964606376 H 0.0 **** 0.06
35756 C 114.26740300629481 109.71033009657839 12.568644322800495 C 0.0 **** -0.24
35757 H 115.0422792100565 109.825425800233 11.810287245251995 H 0.0 **** 0.06
35758 H 113.60746935493658 110.57728116461283 12.548720563703608 H 0.0 **** 0.06
35759 H 114.73179720848418 109.62887110069192 13.551937813229834 H 0.0 **** 0.06
35760 H 113.69033114219319 108.80806142588398 12.363844581888923 H 0.0 **** 0.06
35761 C 99.5109261003067 76.13231824976907 32.52473079599412 C 0.0 **** -0.24
35762 H 99.58608976571156 76.23952970652692 31.44337303786199 H 0.0 **** 0.06
35763 H 98.90429868322633 75.25759031722288 32.76197511703009 H 0.0 **** 0.06
35764 H 99.04658100976263 77.02285678024867 32.947114829992074 H 0.0 **** 0.06
35765 H 100.50877014127289 76.00659569220164 32.947212497556734 H 0.0 **** 0.06
35766 C 14.264260292465188 83.60401343703018 80.70920677222 C 0.0 **** -0.24
35767 H 13.618723729137582 84.45018208045795 80.4764264650187 H 0.0 **** 0.06
35768 H 13.683034149361276 82.68146323546509 80.66584753444499 H 0.0 **** 0.06
35769 H 14.677280910997762 83.72664269320418 81.70978236942307 H 0.0 **** 0.06
35770 H 15.076305434240961 83.55609456391741 79.98294641882697 H 0.0 **** 0.06
35771 C 94.70714403427186 108.18918156219866 73.74706467384061 C 0.0 **** -0.24
35772 H 94.64077091999243 108.83436619083267 72.87074452494628 H 0.0 **** 0.06
35773 H 95.620366166299 108.41550814222884 74.29682293593555 H 0.0 **** 0.06
35774 H 94.72218975430499 107.14665314877678 73.429702600421 H 0.0 **** 0.06
35775 H 93.84300379909024 108.36021010433697 74.39000987758536 H 0.0 **** 0.06
35776 C 24.625939488089813 62.58469762626183 24.108381867164297 C 0.0 **** -0.24
35777 H 23.996834427527972 61.85213524334054 24.615319559087624 H 0.0 **** 0.06
35778 H 25.405877500485417 62.926627574735306 24.788969991472015 H 0.0 **** 0.06
35779 H 24.015948527897294 63.43336316385006 23.79794115181403 H 0.0 **** 0.06
35780 H 25.08429337792255 62.126230385324334 23.23237613410123 H 0.0 **** 0.06
35781 C 104.39175019378882 84.19715041319785 10.258670627498674 C 0.0 **** -0.24
35782 H 104.45235474478093 84.22791428588857 9.171005139208347 H 0.0 **** 0.06
35783 H 103.79078192401312 83.33918225367063 10.564013853988286 H 0.0 **** 0.06
35784 H 103.92819379428565 85.11386273747019 10.623460376292883 H 0.0 **** 0.06
35785 H 105.39467652273206 84.1062280070978 10.676093051003761 H 0.0 **** 0.06
35786 C 96.30349202040026 6.437448261268608 71.38049996119258 C 0.0 **** -0.24
35787 H 95.59448945379819 6.505778072844967 72.2053399116731 H 0.0 **** 0.06
35788 H 97.31538059809583 6.5844767796133965 71.75858422780692 H 0.0 **** 0.06
35789 H 96.07629626374217 7.206874785881862 70.64151377983885 H 0.0 **** 0.06
35790 H 96.22763465322925 5.454871856860436 70.91625351960698 H 0.0 **** 0.06
35791 C 31.95183296415675 102.88544997961992 67.71440738069123 C 0.0 **** -0.24
35792 H 31.348394244202126 102.03667135448347 67.394169862274 H 0.0 **** 0.06
35793 H 31.41707379025175 103.81186572753708 67.50424060496596 H 0.0 **** 0.06
35794 H 32.899206685077274 102.88177050500997 67.17447764512224 H 0.0 **** 0.06
35795 H 32.144237046131025 102.80997427636578 68.78518827614914 H 0.0 **** 0.06
35796 C 18.11666576863405 49.45895682981029 81.02141319390347 C 0.0 **** -0.24
35797 H 18.80896439810465 49.648435314385154 80.20198229658263 H 0.0 **** 0.06
35798 H 17.61089437030104 50.38633003668389 81.29169053719261 H 0.0 **** 0.06
35799 H 18.66776369845752 49.08108119012877 81.88314325546719 H 0.0 **** 0.06
35800 H 17.37836249336513 48.719576546293865 80.70945053996667 H 0.0 **** 0.06
35801 C 79.78032459466877 47.318133843168255 36.878551586162615 C 0.0 **** -0.24
35802 H 79.56430938834168 46.256664001476565 36.99574252944234 H 0.0 **** 0.06
35803 H 80.42505790213312 47.46399428941402 36.01171407141223 H 0.0 **** 0.06
35804 H 80.2830686921937 47.6866148936092 37.77273985330643 H 0.0 **** 0.06
35805 H 78.84761318454937 47.864150096786176 36.73446033377931 H 0.0 **** 0.06
35806 C 21.62117244039564 78.66474882778093 101.62850456166166 C 0.0 **** -0.24
35807 H 20.8249219287608 77.99311804949738 101.30636044001452 H 0.0 **** 0.06
35808 H 21.81205920173167 79.40215883755542 100.84805958505851 H 0.0 **** 0.06
35809 H 22.527743450226183 78.08970933134228 101.8139394076124 H 0.0 **** 0.06
35810 H 21.3182797854773 79.17349380282369 102.54395755852619 H 0.0 **** 0.06
35811 C 20.840774396869136 88.4396256934854 72.31954519709714 C 0.0 **** -0.24
35812 H 21.915635828917885 88.46759600670305 72.50419962002752 H 0.0 **** 0.06
35813 H 20.319861183126676 88.94014542039153 73.13602546008363 H 0.0 **** 0.06
35814 H 20.51021409866553 87.40270918650691 72.25783112976049 H 0.0 **** 0.06
35815 H 20.620385467092092 88.94778964289009 71.38151662225076 H 0.0 **** 0.06
35816 C 50.25229121238363 18.499487938464938 54.80014137895707 C 0.0 **** -0.24
35817 H 50.64940411979617 17.50159656917654 54.61311532651548 H 0.0 **** 0.06
35818 H 51.0704546859111 19.220276472274065 54.79994733455586 H 0.0 **** 0.06
35819 H 49.75456039940733 18.515667647950806 55.76977214820317 H 0.0 **** 0.06
35820 H 49.53797051074544 18.758547759653027 54.019499697191705 H 0.0 **** 0.06
35821 C 36.475643949384036 58.527296075562326 22.109565333698328 C 0.0 **** -0.24
35822 H 36.07192671027593 58.07046609036606 21.20596678968616 H 0.0 **** 0.06
35823 H 36.06468504461267 59.531169869876784 22.224595143229607 H 0.0 **** 0.06
35824 H 37.56132012719782 58.58607309873458 22.03259738006048 H 0.0 **** 0.06
35825 H 36.204709223959455 57.92235327384774 22.974627832335756 H 0.0 **** 0.06
35826 C 14.23726603347679 68.9787674399642 72.55763157164043 C 0.0 **** -0.24
35827 H 14.533491515897715 70.00775854999745 72.76303694394863 H 0.0 **** 0.06
35828 H 14.90830621356261 68.55009173019573 71.81278808100836 H 0.0 **** 0.06
35829 H 13.21595984117976 68.9631905487148 72.17949735553427 H 0.0 **** 0.06
35830 H 14.293710581529236 68.39535010879308 73.4764186950745 H 0.0 **** 0.06
35831 C 60.311268214448425 53.75080522854222 85.43129548298941 C 0.0 **** -0.24
35832 H 61.12550755451107 54.462714402136385 85.55826030922634 H 0.0 **** 0.06
35833 H 59.39973417287691 54.28576893719821 85.16051286639657 H 0.0 **** 0.06
35834 H 60.15259029868951 53.21016022730683 86.3639850502795 H 0.0 **** 0.06
35835 H 60.566050192973655 53.043874296407296 84.64066632411044 H 0.0 **** 0.06
35836 C 38.89983393339037 43.20013313391647 66.85934630159215 C 0.0 **** -0.24
35837 H 38.05050656598389 43.152103509974125 66.1772467520372 H 0.0 **** 0.06
35838 H 39.2087677211956 42.18933922647065 67.12619490153293 H 0.0 **** 0.06
35839 H 38.61213413841175 43.74337612769801 67.75884359516436 H 0.0 **** 0.06
35840 H 39.72701942354289 43.71662090785625 66.37238828008554 H 0.0 **** 0.06
35841 C 85.53963650066993 48.44604138078759 79.90772669828573 C 0.0 **** -0.24
35842 H 85.07011202992982 47.50811278023079 79.61192227784053 H 0.0 **** 0.06
35843 H 85.67900791864344 48.45789709655256 80.98909697128926 H 0.0 **** 0.06
35844 H 84.90207573625253 49.28000295991595 79.61378972992492 H 0.0 **** 0.06
35845 H 86.50707405198415 48.53883044295392 79.41488767343168 H 0.0 **** 0.06
35846 C 42.562719818685665 20.37028347948808 51.36545280111113 C 0.0 **** -0.24
35847 H 42.460998325507035 20.22546369078347 50.289484590605014 H 0.0 **** 0.06
35848 H 42.922030962821594 21.37966614832098 51.56349482867137 H 0.0 **** 0.06
35849 H 43.273435398083464 19.645872500309963 51.7639470944398 H 0.0 **** 0.06
35850 H 41.59336587967675 20.228583092518846 51.84330268170277 H 0.0 **** 0.06
35851 C 98.69429020519897 51.08250860271531 6.58941017383961 C 0.0 **** -0.24
35852 H 98.48468795596244 50.354210694080734 5.806310823224592 H 0.0 **** 0.06
35853 H 99.66753700450633 51.540258675759475 6.408484255101129 H 0.0 **** 0.06
35854 H 98.70072519621112 50.583018260236685 7.558549274556839 H 0.0 **** 0.06
35855 H 97.92366650085219 51.85434149492713 6.582720512904785 H 0.0 **** 0.06
35856 C 18.01144433573444 81.70962036304442 21.964285376427966 C 0.0 **** -0.24
35857 H 17.1688329669596 82.09162924448614 22.541024391313922 H 0.0 **** 0.06
35858 H 18.933472139281037 81.8547424087514 22.528580493979 H 0.0 **** 0.06
35859 H 18.077070704280004 82.24517643936287 21.017687582347985 H 0.0 **** 0.06
35860 H 17.867194686601522 80.64617061560958 21.771795681559453 H 0.0 **** 0.06
35861 C 9.08879366563383 115.88601196594892 100.3582319517615 C 0.0 **** -0.24
35862 H 8.198167019771176 115.83240684880566 99.73193788995727 H 0.0 **** 0.06
35863 H 9.663988550211798 114.96621556771115 100.25101247840638 H 0.0 **** 0.06
35864 H 8.793306613671348 116.0103055173438 101.40034476857369 H 0.0 **** 0.06
35865 H 9.698857072261092 116.73506639623241 100.05014791006735 H 0.0 **** 0.06
35866 C 34.70138054789422 105.6691648555801 97.59989368818322 C 0.0 **** -0.24
35867 H 34.50676100925608 106.67712046032833 97.23205355300888 H 0.0 **** 0.06
35868 H 35.59866309306062 105.67551097332696 98.21862733315817 H 0.0 **** 0.06
35869 H 34.84710588359604 104.99700188183883 96.75363386021033 H 0.0 **** 0.06
35870 H 33.852388150045016 105.32868681802904 98.19263746165717 H 0.0 **** 0.06
35871 C 98.48643965362575 40.141295946022154 76.10483198963593 C 0.0 **** -0.24
35872 H 97.89828692882006 40.95048194655172 76.53846777659604 H 0.0 **** 0.06
35873 H 98.68968981606935 40.361856030048955 75.05583374278183 H 0.0 **** 0.06
35874 H 97.9285708223419 39.20676799448472 76.17839525187645 H 0.0 **** 0.06
35875 H 99.42736896096798 40.045631885792375 76.64544452821329 H 0.0 **** 0.06
35876 C 117.30313410848828 72.34732575373403 19.293172987278183 C 0.0 **** -0.24
35877 H 116.41862827766997 71.71107458390836 19.265596855099204 H 0.0 **** 0.06
35878 H 117.05369036610259 73.29597386572482 19.769424180513454 H 0.0 **** 0.06
35879 H 117.650260592551 72.53013471449538 18.276835157464973 H 0.0 **** 0.06
35880 H 118.08946226462078 71.85007663490512 19.862092999624053 H 0.0 **** 0.06
35881 C 11.436379259400983 40.499485199478215 78.29767295151075 C 0.0 **** -0.24
35882 H 11.367554429796936 40.68442452167619 77.22608762670683 H 0.0 **** 0.06
35883 H 11.336165108160444 41.44235117226481 78.83589268973239 H 0.0 **** 0.06
35884 H 12.403069227183394 40.05068601308187 78.52763904951178 H 0.0 **** 0.06
35885 H 10.639607087244165 39.8215775033965 78.60092652345918 H 0.0 **** 0.06
35886 C 76.46084490885752 113.90325183671717 47.36627314746667 C 0.0 **** -0.24
35887 H 76.05013234132593 114.88104755804216 47.61867224659545 H 0.0 **** 0.06
35888 H 75.88479225225697 113.46736961732822 46.54942208769596 H 0.0 **** 0.06
35889 H 76.4067912988634 113.25072066026333 48.23865949436585 H 0.0 **** 0.06
35890 H 77.50012690267448 114.01418744059895 47.05907171308897 H 0.0 **** 0.06
35891 C 18.664297188188005 15.57515762876136 40.474821692196656 C 0.0 **** -0.24
35892 H 19.241610573240152 15.380630369431856 41.378068006684714 H 0.0 **** 0.06
35893 H 18.238524788503454 14.6413307863495 40.1078477770792 H 0.0 **** 0.06
35894 H 19.31626074070118 16.00129861561419 39.71197506072497 H 0.0 **** 0.06
35895 H 17.861618042939508 16.276689462560796 40.700471424326395 H 0.0 **** 0.06
35896 C 3.8036023143411626 90.81901779322149 35.356476282037136 C 0.0 **** -0.24
35897 H 3.881541165758506 91.34566002624717 36.308338216875285 H 0.0 **** 0.06
35898 H 4.513278736808843 91.24593168128163 34.646950702340206 H 0.0 **** 0.06
35899 H 2.7910694597082966 90.9219649606859 34.96580418383496 H 0.0 **** 0.06
35900 H 4.030575106624326 89.76366013938889 35.50667324879879 H 0.0 **** 0.06
35901 C 99.56862849293046 79.35370096246788 61.10683236215982 C 0.0 **** -0.24
35902 H 99.18845933381718 79.14832978507218 62.10745849151556 H 0.0 **** 0.06
35903 H 98.87008039194285 80.00330093460337 60.57943308660077 H 0.0 **** 0.06
35904 H 99.67854357203103 78.41660356491991 60.56071265531955 H 0.0 **** 0.06
35905 H 100.53791351204777 79.8471993218389 61.18261844887013 H 0.0 **** 0.06
35906 C 105.66090526013977 29.485132245929726 59.79254432809413 C 0.0 **** -0.24
35907 H 106.24606529269477 28.630242654812832 60.13173174515112 H 0.0 **** 0.06
35908 H 104.75827460242195 29.570948910343745 60.398306674921095 H 0.0 **** 0.06
35909 H 105.3845785088835 29.34529426924182 58.747214013442566 H 0.0 **** 0.06
35910 H 106.25374555481659 30.39381662091551 59.89310581525498 H 0.0 **** 0.06
35911 C 55.811065008333514 85.04316599377242 70.6966640230576 C 0.0 **** -0.24
35912 H 55.42373757096766 85.30248113336248 71.68255638589233 H 0.0 **** 0.06
35913 H 55.05678081547859 84.48170574922952 70.1463838632136 H 0.0 **** 0.06
35914 H 56.708868285195535 84.43469686839583 70.80829379712583 H 0.0 **** 0.06
35915 H 56.05585597481405 85.9546610651779 70.15229592422065 H 0.0 **** 0.06
35916 C 55.55986583060039 3.145739002204749 84.67004577769208 C 0.0 **** -0.24
35917 H 55.3494185248191 2.1804584944741805 84.21138692436492 H 0.0 **** 0.06
35918 H 54.7259008932819 3.433696228078844 85.31042668946202 H 0.0 **** 0.06
35919 H 55.696901562125646 3.8958827939558063 83.8915394913821 H 0.0 **** 0.06
35920 H 56.46911855858869 3.073836375345323 85.26762850132863 H 0.0 **** 0.06
35921 C 39.611299556958585 50.75994652205659 23.404111506844608 C 0.0 **** -0.24
35922 H 40.03440581760387 50.57714258311529 22.416295538147306 H 0.0 **** 0.06
35923 H 39.20534453397818 51.77042308759582 23.444325466593064 H 0.0 **** 0.06
35924 H 40.39112277291949 50.650836346545724 24.158531385747892 H 0.0 **** 0.06
35925 H 38.81618677621404 50.040429009481706 23.59808251231005 H 0.0 **** 0.06
35926 C 42.48326865142246 36.27685062988934 107.43884101989676 C 0.0 **** -0.24
35927 H 42.86774478971341 36.67172401037533 108.37863547339336 H 0.0 **** 0.06
35928 H 41.502277478223334 35.8311208726322 107.60673662893964 H 0.0 **** 0.06
35929 H 43.16674852909438 35.517963716274835 107.05699088836178 H 0.0 **** 0.06
35930 H 42.39613963119808 37.085143789605866 106.71393401036772 H 0.0 **** 0.06
35931 C 84.59072917308126 59.042026747682115 83.83706952436341 C 0.0 **** -0.24
35932 H 83.85930465684191 58.79215348484769 84.60563969014538 H 0.0 **** 0.06
35933 H 84.74410396121439 58.18091450016135 83.18694921482734 H 0.0 **** 0.06
35934 H 85.53534036746822 59.313819852418646 84.30977647096648 H 0.0 **** 0.06
35935 H 84.22574014963007 59.88320769877396 83.24751697756491 H 0.0 **** 0.06
35936 C 25.642804496053714 106.0655691339131 92.45664124295473 C 0.0 **** -0.24
35937 H 25.924044228037133 106.62559792888283 93.34861183947953 H 0.0 **** 0.06
35938 H 24.904120456880946 106.63184474785635 91.88970265067789 H 0.0 **** 0.06
35939 H 25.21904190487919 105.10533850757881 92.75006407280605 H 0.0 **** 0.06
35940 H 26.525962918824405 105.89954436147562 91.83927702486815 H 0.0 **** 0.06
35941 C 0.5929472539359519 17.464475678537326 84.4564931266865 C 0.0 **** -0.24
35942 H 0.8037435943750122 18.23125837298886 85.20059570907131 H 0.0 **** 0.06
35943 H 1.1506891659129135 16.559803562131037 84.69929945224271 H 0.0 **** 0.06
35944 H 0.891909306241315 17.822453721611993 83.47149771547652 H 0.0 **** 0.06
35945 H -0.47486825963817125 17.24394113307531 84.45541739687917 H 0.0 **** 0.06
35946 C 15.907176845657148 72.63721993538962 101.84984631411223 C 0.0 **** -0.24
35947 H 16.048249255618828 71.68418658003708 102.35980373925378 H 0.0 **** 0.06
35948 H 15.45683116534417 73.35275378244984 102.53781917069699 H 0.0 **** 0.06
35949 H 15.25074052893703 72.49445451945877 100.99147811433053 H 0.0 **** 0.06
35950 H 16.871717461797545 73.01382223840915 101.51233845355034 H 0.0 **** 0.06
35951 C 111.3211946936015 84.50915536336765 31.82620481971341 C 0.0 **** -0.24
35952 H 110.41887183856751 85.01539072024471 31.483717188089827 H 0.0 **** 0.06
35953 H 112.10263107402123 84.61064119911211 31.071648985990805 H 0.0 **** 0.06
35954 H 111.10644892116987 83.45280960568851 31.98733660891267 H 0.0 **** 0.06
35955 H 111.65820829069372 84.95894307310292 32.75993947152091 H 0.0 **** 0.06
35956 C 86.096760954074 32.472923902094976 63.9925526217219 C 0.0 **** -0.24
35957 H 85.05412884635871 32.737432947969694 63.8198281293015 H 0.0 **** 0.06
35958 H 86.17212571839059 31.86159912409488 64.89252640490238 H 0.0 **** 0.06
35959 H 86.68625599576825 33.38142663078867 64.12020065278995 H 0.0 **** 0.06
35960 H 86.47540478880654 31.911842256087425 63.138590231974746 H 0.0 **** 0.06
35961 C 5.133842454917357 84.58345074293385 8.829098439812231 C 0.0 **** -0.24
35962 H 6.217192346293132 84.60655530567115 8.70947493047549 H 0.0 **** 0.06
35963 H 4.681006207406824 85.33179643311996 8.178200085155442 H 0.0 **** 0.06
35964 H 4.878755915356493 84.79892966717634 9.865589696789055 H 0.0 **** 0.06
35965 H 4.760030775275425 83.59490483457941 8.560166378565253 H 0.0 **** 0.06
35966 C 43.464565317166006 98.39324418824702 27.709050020416626 C 0.0 **** -0.24
35967 H 42.904733355222476 97.60401429561881 28.21155172314677 H 0.0 **** 0.06
35968 H 43.98919888956786 98.99400903948018 28.45201689769965 H 0.0 **** 0.06
35969 H 42.776604896081636 99.02576823350762 27.149239979413494 H 0.0 **** 0.06
35970 H 44.187708701464715 97.94729074033464 27.025923561453496 H 0.0 **** 0.06
35971 C 5.238814556519529 31.567133029927135 70.80182874463003 C 0.0 **** -0.24
35972 H 5.68077641517506 31.5868882666379 69.80584983348137 H 0.0 **** 0.06
35973 H 5.041708554248757 32.58686663390239 71.13289094745971 H 0.0 **** 0.06
35974 H 5.928001269657003 31.0861758154916 71.49604226296651 H 0.0 **** 0.06
35975 H 4.3042951503586835 31.007269959775783 70.77253089766609 H 0.0 **** 0.06
35976 C 31.204432264616912 112.9307392585167 22.03153352947646 C 0.0 **** -0.24
35977 H 31.80860214866948 113.71439251725357 21.575088731295256 H 0.0 **** 0.06
35978 H 31.84475264959957 112.09309345871112 22.309853395100703 H 0.0 **** 0.06
35979 H 30.451047328254674 112.59183842575662 21.319534928693614 H 0.0 **** 0.06
35980 H 30.712481460017727 113.32412320273777 22.921445931409828 H 0.0 **** 0.06
35981 C 66.96487776085775 40.234989841548014 104.9631623178791 C 0.0 **** -0.24
35982 H 67.19724876855244 39.202389900556255 104.705236807906 H 0.0 **** 0.06
35983 H 66.48560106554643 40.72274836507282 104.11393556243502 H 0.0 **** 0.06
35984 H 67.88504683059375 40.762483802962464 105.2135351326103 H 0.0 **** 0.06
35985 H 66.2916143787383 40.252337297600576 105.81994176856526 H 0.0 **** 0.06
35986 C 81.49787224692619 22.101156896870464 89.73971897720489 C 0.0 **** -0.24
35987 H 80.61730577214843 22.31998529839086 89.13718492866607 H 0.0 **** 0.06
35988 H 82.11165180141847 22.998380556376105 89.82480707073492 H 0.0 **** 0.06
35989 H 82.07611018344144 21.308953097508663 89.26460154573613 H 0.0 **** 0.06
35990 H 81.18687715013488 21.778331512694876 90.73314606283458 H 0.0 **** 0.06
35991 C 1.0665575344460478 87.6835213203484 31.834273370590125 C 0.0 **** -0.24
35992 H 0.06271998271088819 87.35209585739028 31.572155472871415 H 0.0 **** 0.06
35993 H 1.0498689690697347 88.15138517625257 32.81863889018278 H 0.0 **** 0.06
35994 H 1.4162990778057747 88.40441722752189 31.09549228270143 H 0.0 **** 0.06
35995 H 1.7387409085508807 86.82517242543253 31.850925709007015 H 0.0 **** 0.06
35996 C 105.11198403782757 30.156688080702992 113.67563290922513 C 0.0 **** -0.24
35997 H 104.60439065499787 30.914212689869487 114.27293015731698 H 0.0 **** 0.06
35998 H 105.8883954203925 30.629665665476523 113.07332301502801 H 0.0 **** 0.06
35999 H 104.3909167392454 29.667273811151205 113.02193028866083 H 0.0 **** 0.06
36000 H 105.56353147697618 29.417197884761407 114.33678850042267 H 0.0 **** 0.06
36001 C 85.82303950466172 17.004346176898878 13.545068966725989 C 0.0 **** -0.24
36002 H 85.06541721573274 17.098403606039625 14.324443307499855 H 0.0 **** 0.06
36003 H 85.90479254842217 17.946317733125426 13.002967885225498 H 0.0 **** 0.06
36004 H 85.53730730435032 16.21091828767544 12.855784731436025 H 0.0 **** 0.06
36005 H 86.78292727309031 16.76212292004078 14.00131335486083 H 0.0 **** 0.06
36006 C 58.76022881493248 112.36111380381887 118.12218812762407 C 0.0 **** -0.24
36007 H 59.760421470503694 112.24280294576397 117.70614999856922 H 0.0 **** 0.06
36008 H 58.02029292459415 112.2156921971314 117.33524022961477 H 0.0 **** 0.06
36009 H 58.656571186135984 113.36401858570085 118.53757797196809 H 0.0 **** 0.06
36010 H 58.60459223323415 111.62388456256744 118.90923819931143 H 0.0 **** 0.06
36011 C 32.59179208068673 64.66492742364659 59.180558651882954 C 0.0 **** -0.24
36012 H 33.03649762758957 65.55011487187613 59.63673384209721 H 0.0 **** 0.06
36013 H 31.526181891757062 64.83310764612037 59.02748724119453 H 0.0 **** 0.06
36014 H 32.73489979932381 63.80768031786948 59.837410289500674 H 0.0 **** 0.06
36015 H 33.070857932819706 64.47231506682482 58.22031493705378 H 0.0 **** 0.06
36016 C 34.21549083242343 55.80394965947682 58.63226401480188 C 0.0 **** -0.24
36017 H 34.49347516722622 54.76805489988734 58.44015655407987 H 0.0 **** 0.06
36018 H 34.58674462095141 56.10254231325056 59.61307065810974 H 0.0 **** 0.06
36019 H 33.12985387501101 55.89858865796544 58.61000590669011 H 0.0 **** 0.06
36020 H 34.65269547577401 56.445145172066084 57.86691704788161 H 0.0 **** 0.06
36021 C 106.68694479732758 61.696895990527025 95.34263938924806 C 0.0 **** -0.24
36022 H 107.76183151045012 61.70849680114139 95.5212940986745 H 0.0 **** 0.06
36023 H 106.48215419471177 62.05086024623233 94.33186951937444 H 0.0 **** 0.06
36024 H 106.19200370021608 62.34716870766721 96.06399039730724 H 0.0 **** 0.06
36025 H 106.31165204499922 60.67958854183013 95.45475311427595 H 0.0 **** 0.06
36026 C 93.90899093852403 7.116651984905843 44.26451082647483 C 0.0 **** -0.24
36027 H 93.82061216436477 8.160085733140662 44.56616749036698 H 0.0 **** 0.06
36028 H 92.97502844461124 6.790681343057429 43.80647067107611 H 0.0 **** 0.06
36029 H 94.11925742384963 6.501868151162967 45.139472762962725 H 0.0 **** 0.06
36030 H 94.72151136749386 7.014563923347438 43.54472739767067 H 0.0 **** 0.06
36031 C 83.7485977254334 97.48318390183357 47.75860646536944 C 0.0 **** -0.24
36032 H 83.3776882500647 96.76766144688224 47.024243891679504 H 0.0 **** 0.06
36033 H 83.7840313452194 97.00975726756207 48.73981503293288 H 0.0 **** 0.06
36034 H 83.08157901962869 98.34478109189627 47.794702512012776 H 0.0 **** 0.06
36035 H 84.74868373028778 97.8089897545857 47.47476491223114 H 0.0 **** 0.06
36036 C 111.42853082943833 21.6098749760351 24.78855939443575 C 0.0 **** -0.24
36037 H 110.83199342992194 21.628842341667397 25.700471627911426 H 0.0 **** 0.06
36038 H 111.62108128908824 22.63091143479798 24.45788056444028 H 0.0 **** 0.06
36039 H 110.88614166859446 21.07119381395635 24.01094044610941 H 0.0 **** 0.06
36040 H 112.37617409460512 21.106845756847136 24.98563938199026 H 0.0 **** 0.06
36041 C 39.47433075404399 83.22595124377463 86.39738473973702 C 0.0 **** -0.24
36042 H 38.718594547027976 83.89828487128517 86.80430228169851 H 0.0 **** 0.06
36043 H 38.98547350223737 82.41782224325684 85.85408314389608 H 0.0 **** 0.06
36044 H 40.06675402597932 82.81023126027071 87.21238543069381 H 0.0 **** 0.06
36045 H 40.124708619560124 83.77908626972561 85.72023940258632 H 0.0 **** 0.06
36046 C 73.03533536526302 7.017842142874137 104.54948404665419 C 0.0 **** -0.24
36047 H 71.94632775120013 7.049649152460507 104.57643353417197 H 0.0 **** 0.06
36048 H 73.43597547643242 7.5190156602919735 105.43072815942628 H 0.0 **** 0.06
36049 H 73.39090271034306 7.522204265806685 103.65065963890927 H 0.0 **** 0.06
36050 H 73.36724624590397 5.97975341798826 104.53882926710119 H 0.0 **** 0.06
36051 C 28.86692777722098 21.874243677867522 113.10717143354344 C 0.0 **** -0.24
36052 H 29.35752819004179 21.52544376443293 112.19884033514049 H 0.0 **** 0.06
36053 H 27.826038825800197 21.54887744265225 113.10588925089874 H 0.0 **** 0.06
36054 H 28.906961348698417 22.96272742125725 113.14680746549584 H 0.0 **** 0.06
36055 H 29.37581793269257 21.45996930516972 113.97751683767348 H 0.0 **** 0.06
36056 C 78.56378460482392 11.596191865645238 98.90852019879753 C 0.0 **** -0.24
36057 H 79.28366296041168 12.090520412626432 98.25637221164936 H 0.0 **** 0.06
36058 H 78.5911121386157 10.52056037200498 98.73030194397441 H 0.0 **** 0.06
36059 H 77.56305433521095 11.974100329479484 98.69722008581164 H 0.0 **** 0.06
36060 H 78.8167586009265 11.7990313304891 99.94834555767014 H 0.0 **** 0.06
36061 C 2.49538461289103 29.995466016449356 103.09104913686059 C 0.0 **** -0.24
36062 H 1.456216255688176 29.973986773363386 102.76620732136539 H 0.0 **** 0.06
36063 H 2.8540116388399497 31.024786300784122 103.09451021929527 H 0.0 **** 0.06
36064 H 3.1019129274977217 29.40135739800261 102.40727363337925 H 0.0 **** 0.06
36065 H 2.5707569093858496 29.579961605902866 104.09631811435389 H 0.0 **** 0.06
36066 C 67.82595456215546 10.823003480110781 3.676041833809066 C 0.0 **** -0.24
36067 H 67.49123080674957 11.859763891294865 3.7077185704782636 H 0.0 **** 0.06
36068 H 68.14257743210027 10.574610357040697 2.6626542323589746 H 0.0 **** 0.06
36069 H 67.00733422923707 10.167357093924036 3.9723898054382545 H 0.0 **** 0.06
36070 H 68.66377310651558 10.690969614787644 4.361973913672756 H 0.0 **** 0.06
36071 C 53.63027229613599 109.41519125994449 113.73746941953824 C 0.0 **** -0.24
36072 H 52.775099174003266 108.77130600889532 113.53300362477152 H 0.0 **** 0.06
36073 H 53.38601644462509 110.09640613055444 114.5518992104629 H 0.0 **** 0.06
36074 H 53.873961980290666 109.98970732860096 112.84270782668187 H 0.0 **** 0.06
36075 H 54.486245790111056 108.8023982719871 114.02025503605458 H 0.0 **** 0.06
36076 C 118.7050971625722 19.223451317585898 91.74148938141931 C 0.0 **** -0.24
36077 H 118.42775375911049 19.29179687442044 92.79314524694391 H 0.0 **** 0.06
36078 H 119.77800939202166 19.047975023809613 91.65964795934343 H 0.0 **** 0.06
36079 H 118.44866474162461 20.155083402825113 91.23749571358164 H 0.0 **** 0.06
36080 H 118.16490561861133 18.397907359639333 91.27734190786387 H 0.0 **** 0.06
36081 C 78.76375540263041 65.03133325159237 118.36194702854228 C 0.0 **** -0.24
36082 H 78.21810224326049 65.72356343558374 117.72110887310602 H 0.0 **** 0.06
36083 H 78.06725035897767 64.54278365776042 119.04430739128935 H 0.0 **** 0.06
36084 H 79.51043372745107 65.57986196504893 118.93690646275057 H 0.0 **** 0.06
36085 H 79.25802536815934 64.2795640551272 117.74699595922073 H 0.0 **** 0.06
36086 C 2.488938749883234 84.33485440168536 93.78996420286524 C 0.0 **** -0.24
36087 H 2.321423143044484 83.31345955575998 93.44723734583738 H 0.0 **** 0.06
36088 H 3.5255807813416844 84.61472434465693 93.60035742601573 H 0.0 **** 0.06
36089 H 2.2853274782231843 84.39701149953993 94.8595573907404 H 0.0 **** 0.06
36090 H 1.825175426946851 85.01151708104376 93.25397511688979 H 0.0 **** 0.06
36091 C 95.28882798982616 46.50734203915937 90.73234925813298 C 0.0 **** -0.24
36092 H 94.90559445883233 46.54467526106049 89.71318450525837 H 0.0 **** 0.06
36093 H 96.37816451469328 46.54694405162064 90.71262071957034 H 0.0 **** 0.06
36094 H 94.96747754872092 45.580350354627285 91.20753332379465 H 0.0 **** 0.06
36095 H 94.90383326577654 47.357124565609354 91.29698927788385 H 0.0 **** 0.06
36096 C 9.661378043409968 100.8494807513913 89.1361296596616 C 0.0 **** -0.24
36097 H 9.668113910161509 101.28374167231382 88.13619032472934 H 0.0 **** 0.06
36098 H 9.005821997854895 101.4340085142693 89.7816458373581 H 0.0 **** 0.06
36099 H 10.673045863398713 100.8571110554739 89.54171142113182 H 0.0 **** 0.06
36100 H 9.299212946235954 99.82266519549273 89.08265217232707 H 0.0 **** 0.06
36101 C 37.146498252300375 14.85518745884275 102.44978065744425 C 0.0 **** -0.24
36102 H 36.13672322626624 14.666819301310113 102.8143220108395 H 0.0 **** 0.06
36103 H 37.86826331433035 14.425930896117052 103.14452201528334 H 0.0 **** 0.06
36104 H 37.31022496611284 15.930538954243588 102.37359440008368 H 0.0 **** 0.06
36105 H 37.26906761092434 14.398397378390428 101.46816255741842 H 0.0 **** 0.06
36106 C 26.338367105903558 91.81781434086966 42.84789095032508 C 0.0 **** -0.24
36107 H 25.63956718738376 91.6906526330693 42.021089799787504 H 0.0 **** 0.06
36108 H 27.300309835378414 92.15375967935248 42.46033127601933 H 0.0 **** 0.06
36109 H 26.466901506114937 90.86726495993597 43.36537074397938 H 0.0 **** 0.06
36110 H 25.947779769396163 92.5607700340845 43.54322391763887 H 0.0 **** 0.06
36111 C 56.86887215045957 107.10869884252995 106.0585026912137 C 0.0 **** -0.24
36112 H 57.18252776034863 107.92585865304 105.40880924099704 H 0.0 **** 0.06
36113 H 55.81655491555099 106.88686330150469 105.88062631249065 H 0.0 **** 0.06
36114 H 57.00916176778096 107.39934255434011 107.09972007302068 H 0.0 **** 0.06
36115 H 57.469086751303685 106.2236843582717 105.84402088017845 H 0.0 **** 0.06
36116 C 15.974148991757783 62.596460581365136 13.887355451556544 C 0.0 **** -0.24
36117 H 17.00903248390165 62.60734577604455 14.22905008877899 H 0.0 **** 0.06
36118 H 15.544627422797536 61.60869846156737 14.058577139301292 H 0.0 **** 0.06
36119 H 15.940579373922457 62.828197530321006 12.822618085146132 H 0.0 **** 0.06
36120 H 15.40207806877595 63.342347729357016 14.439779953876268 H 0.0 **** 0.06
36121 C 0.09182549813330354 24.70361672790321 89.46383287461697 C 0.0 **** -0.24
36122 H 0.17928332681201198 23.724445384169144 88.99328302410609 H 0.0 **** 0.06
36123 H -0.7900061119985935 24.721345098676835 90.10454287598125 H 0.0 **** 0.06
36124 H -0.0028959955404275206 25.46993317514537 88.69356370478351 H 0.0 **** 0.06
36125 H 0.9811374722573873 24.898606365261088 90.06222886154939 H 0.0 **** 0.06
36126 C 24.660434065917883 31.114400053137032 102.95710834074518 C 0.0 **** -0.24
36127 H 24.29920998408673 31.827612028271602 102.21688921744817 H 0.0 **** 0.06
36128 H 25.60758550544213 31.463905837218768 103.36737337142682 H 0.0 **** 0.06
36129 H 24.804991980401695 30.142603321436944 102.4843824909293 H 0.0 **** 0.06
36130 H 23.928047320237653 31.022302321107915 103.75979588568575 H 0.0 **** 0.06
36131 C 64.30108611222357 95.07529567464812 37.20963111068575 C 0.0 **** -0.24
36132 H 65.15220124565926 95.37468505187124 37.81974134015183 H 0.0 **** 0.06
36133 H 63.936209613281214 94.10391184209266 37.545086363858346 H 0.0 **** 0.06
36134 H 64.6078679546379 95.00793329795425 36.16587501884606 H 0.0 **** 0.06
36135 H 63.506230223456974 95.81523694362718 37.30668594281895 H 0.0 **** 0.06
36136 C 32.30072642215034 13.436724314131542 88.09493489535166 C 0.0 **** -0.24
36137 H 31.623428279746996 14.094745979078468 87.55006765148372 H 0.0 **** 0.06
36138 H 33.220521884689816 13.974576315612119 88.32717435719687 H 0.0 **** 0.06
36139 H 32.53307990203531 12.566850501653771 87.48029109553755 H 0.0 **** 0.06
36140 H 31.82547570677071 13.111816546411735 89.02029657976607 H 0.0 **** 0.06
36141 C 7.179443089137237 112.80674601342969 85.42656631084196 C 0.0 **** -0.24
36142 H 6.5779223518911465 112.5266519632687 86.29121461095724 H 0.0 **** 0.06
36143 H 8.187235479049136 113.06423453098728 85.75384721063827 H 0.0 **** 0.06
36144 H 6.727034844920325 113.66664375355731 84.93345965251885 H 0.0 **** 0.06
36145 H 7.225849634512372 111.97072945294894 84.72956039864482 H 0.0 **** 0.06
36146 C 18.884851548836025 106.19787721738712 112.75011400492123 C 0.0 **** -0.24
36147 H 18.778858755717664 106.40193899956961 111.6845442519244 H 0.0 **** 0.06
36148 H 19.822117843224703 105.6690513152202 112.92602786029583 H 0.0 **** 0.06
36149 H 18.050848409523326 105.58205312392425 113.08669388818558 H 0.0 **** 0.06
36150 H 18.888490373319087 107.1376867782177 113.30158773517455 H 0.0 **** 0.06
36151 C 116.3401286426975 101.35023583815425 87.47481750839671 C 0.0 **** -0.24
36152 H 116.76414501872519 100.42399890287308 87.08707684946376 H 0.0 **** 0.06
36153 H 115.72788243041188 101.12982600759415 88.35029038368373 H 0.0 **** 0.06
36154 H 115.72172109213396 101.81640146762464 86.7071096630944 H 0.0 **** 0.06
36155 H 117.14479343119237 102.02950294841133 87.75559022440859 H 0.0 **** 0.06
36156 C 59.586078239440894 55.708574950229576 47.97327269789627 C 0.0 **** -0.24
36157 H 58.50083305663105 55.748151277437785 48.06418004954539 H 0.0 **** 0.06
36158 H 60.03251334572877 55.68163167812972 48.967325678995074 H 0.0 **** 0.06
36159 H 59.937770408427355 56.59293217337199 47.440504851611244 H 0.0 **** 0.06
36160 H 59.872328243671745 54.81364533940095 47.42105401178704 H 0.0 **** 0.06
36161 C 79.3490731918871 61.348369957897006 101.04851102198728 C 0.0 **** -0.24
36162 H 80.13522897041224 61.2275319821309 101.79398326190409 H 0.0 **** 0.06
36163 H 78.48909106862311 61.84053675083214 101.50352883254794 H 0.0 **** 0.06
36164 H 79.05100946383303 60.36929387761185 100.67284010338756 H 0.0 **** 0.06
36165 H 79.72054325934027 61.95531857585351 100.22326082169116 H 0.0 **** 0.06
36166 C 59.48996050599346 102.59448334474001 87.32654505829444 C 0.0 **** -0.24
36167 H 60.45284794728391 102.91476018920031 87.72510385622778 H 0.0 **** 0.06
36168 H 59.20005381980719 101.65226331978812 87.79153441669277 H 0.0 **** 0.06
36169 H 59.571818763118365 102.45894286635036 86.24821507172922 H 0.0 **** 0.06
36170 H 58.738072930487114 103.35372870821499 87.54089547121754 H 0.0 **** 0.06
36171 C 13.765930178874658 1.3103483871844048 84.6434160315043 C 0.0 **** -0.24
36172 H 13.422161961039663 1.683421845174479 83.67940872202814 H 0.0 **** 0.06
36173 H 13.310451629028744 1.8968473143883102 85.44255868678607 H 0.0 **** 0.06
36174 H 14.850738584353383 1.3981875356915623 84.70174755277219 H 0.0 **** 0.06
36175 H 13.479074702931296 0.26399676359791613 84.75173883611927 H 0.0 **** 0.06
36176 C 42.77171294263391 104.664867527784 103.5104813514588 C 0.0 **** -0.24
36177 H 41.82448611785529 104.77630071053045 102.98236812099353 H 0.0 **** 0.06
36178 H 43.02647131233351 103.60786758551353 103.58195732624651 H 0.0 **** 0.06
36179 H 42.6805023332372 105.08676252743169 104.5114662733983 H 0.0 **** 0.06
36180 H 43.555019970686004 105.19166918272299 102.96411721163778 H 0.0 **** 0.06
36181 C 64.80547782071744 51.58638293997953 82.34134757744161 C 0.0 **** -0.24
36182 H 64.02204294992214 51.298531736394125 81.64018920319904 H 0.0 **** 0.06
36183 H 64.88966414610445 52.67271769431221 82.36477861007197 H 0.0 **** 0.06
36184 H 65.75406109045377 51.154798068830175 82.02235567671252 H 0.0 **** 0.06
36185 H 64.55538487049989 51.21846240004916 83.33652372899004 H 0.0 **** 0.06
36186 C 88.20494591125595 51.35081659395698 53.7219992921265 C 0.0 **** -0.24
36187 H 88.99074221892025 50.61178557945502 53.880810300107214 H 0.0 **** 0.06
36188 H 88.60217046960497 52.18513199040993 53.14269529735941 H 0.0 **** 0.06
36189 H 87.84802062343286 51.71453231388659 54.68504691668912 H 0.0 **** 0.06
36190 H 87.37967720847877 50.891180655970885 53.17806184374379 H 0.0 **** 0.06
36191 C 46.05806534378371 100.08028122987335 62.98478301435705 C 0.0 **** -0.24
36192 H 45.84340983237399 100.6869641549938 62.104400441759196 H 0.0 **** 0.06
36193 H 45.128176485133224 99.66759391481762 63.37706544560183 H 0.0 **** 0.06
36194 H 46.53171400132993 100.69949694595311 63.746279822497115 H 0.0 **** 0.06
36195 H 46.728609060876636 99.26614230754402 62.70938236220758 H 0.0 **** 0.06
36196 C 42.73608498887012 71.72252537112138 33.556647180934704 C 0.0 **** -0.24
36197 H 43.8146338781303 71.86771130194597 33.50519970039073 H 0.0 **** 0.06
36198 H 42.24114142932433 72.69298085910009 33.58982207150581 H 0.0 **** 0.06
36199 H 42.487734809372405 71.15588581514862 34.45358715764161 H 0.0 **** 0.06
36200 H 42.401748682471656 71.17386483105378 32.67573489416719 H 0.0 **** 0.06
36201 C 75.24379132832891 25.821493608225808 88.05133158085377 C 0.0 **** -0.24
36202 H 74.35121786439899 26.330332529398106 87.68727370721501 H 0.0 **** 0.06
36203 H 74.95572572282589 24.901950130766352 88.55968038073664 H 0.0 **** 0.06
36204 H 75.77272661981274 26.472051800365875 88.7474429470004 H 0.0 **** 0.06
36205 H 75.89450123888801 25.584316020574875 87.20956856100565 H 0.0 **** 0.06
36206 C 24.887650211964242 87.56082843674551 52.930282585343434 C 0.0 **** -0.24
36207 H 25.85337144344129 87.86741190808951 53.33365427332768 H 0.0 **** 0.06
36208 H 24.114769249389973 88.2452088089679 53.28003119463028 H 0.0 **** 0.06
36209 H 24.659036515929472 86.54929005508669 53.26788668570623 H 0.0 **** 0.06
36210 H 24.926693829946032 87.58041009396754 51.841081624350636 H 0.0 **** 0.06
36211 C 74.92563842382708 27.84478738735328 73.53186060012158 C 0.0 **** -0.24
36212 H 74.85346253920716 27.994346102520296 74.60922888124082 H 0.0 **** 0.06
36213 H 73.923954609004 27.78687207614729 73.10496954689881 H 0.0 **** 0.06
36214 H 75.4613420959457 26.91682684815072 73.32928112778305 H 0.0 **** 0.06
36215 H 75.46393040421017 28.68014109169627 73.0841938775232 H 0.0 **** 0.06
36216 C 74.98397824261326 77.75487027000247 0.5773244531134338 C 0.0 **** -0.24
36217 H 74.61849678145208 76.74996044288991 0.7850695394701148 H 0.0 **** 0.06
36218 H 74.85359319131638 77.9763930477227 -0.4825708462034939 H 0.0 **** 0.06
36219 H 76.0417514094828 77.81685852389597 0.8337537324678355 H 0.0 **** 0.06
36220 H 74.42304383588919 78.47686502691494 1.1717416459080834 H 0.0 **** 0.06
36221 C 91.89071829667691 35.76768756558323 54.24486459983274 C 0.0 **** -0.24
36222 H 91.23824986429935 36.61614300349237 54.039064029698736 H 0.0 **** 0.06
36223 H 91.38799250805468 35.08105210039645 54.92688524606445 H 0.0 **** 0.06
36224 H 92.81404865293445 36.1221055647772 54.70193400752308 H 0.0 **** 0.06
36225 H 92.11992416020286 35.251909346367825 53.31288819792118 H 0.0 **** 0.06
36226 C 92.16919339958869 79.72680463609149 13.456400813827997 C 0.0 **** -0.24
36227 H 91.10338366620948 79.8082181377024 13.242363340282822 H 0.0 **** 0.06
36228 H 92.45929473907128 80.51150795681576 14.156309793159238 H 0.0 **** 0.06
36229 H 92.73450882861476 79.83760067006352 12.531323386876068 H 0.0 **** 0.06
36230 H 92.3774939020852 78.75194918056056 13.896230618223854 H 0.0 **** 0.06
36231 C 34.02708126662762 19.96108055031638 102.10802951929315 C 0.0 **** -0.24
36232 H 33.42454851522578 20.86683255308472 102.03912983347959 H 0.0 **** 0.06
36233 H 35.02839523600122 20.217511990896085 102.45373431865306 H 0.0 **** 0.06
36234 H 34.08985921703763 19.490806517198905 101.12696234421213 H 0.0 **** 0.06
36235 H 33.56383807457971 19.27050790398019 102.81290592549811 H 0.0 **** 0.06
36236 C 90.21707154705572 99.69364332808928 23.91764687096869 C 0.0 **** -0.24
36237 H 90.82826107960918 99.32251998511299 23.095025826826493 H 0.0 **** 0.06
36238 H 90.52624389755164 99.21128570027201 24.845082670819366 H 0.0 **** 0.06
36239 H 89.16873343879311 99.46732986882705 23.72260582901489 H 0.0 **** 0.06
36240 H 90.34589449784073 100.77197254569424 24.007503855231093 H 0.0 **** 0.06
36241 C 44.06578167496798 45.361897827682185 23.77979294555385 C 0.0 **** -0.24
36242 H 43.26398194477672 44.623634789084974 23.76104575010956 H 0.0 **** 0.06
36243 H 43.94906751103389 46.00162652889395 24.65552216171423 H 0.0 **** 0.06
36244 H 44.019603553170114 45.96963484850431 22.87624114796077 H 0.0 **** 0.06
36245 H 45.028152483769844 44.85204998740704 23.82680557850577 H 0.0 **** 0.06
36246 C 21.361990823323666 62.58615447787531 52.08196365257979 C 0.0 **** -0.24
36247 H 20.53945320447822 62.423511964355896 52.77847772317463 H 0.0 **** 0.06
36248 H 21.24447552192636 63.55738980737476 51.600677152153736 H 0.0 **** 0.06
36249 H 21.357272728890933 61.802293904966405 51.3250456457869 H 0.0 **** 0.06
36250 H 22.30742556532752 62.561264586784716 52.62438530168562 H 0.0 **** 0.06
36251 C 68.00125281221528 36.774452699754676 18.589239464464715 C 0.0 **** -0.24
36252 H 68.51980094860915 35.920728435293256 19.027020637090327 H 0.0 **** 0.06
36253 H 68.52199872071932 37.090031315922715 17.685208269607575 H 0.0 **** 0.06
36254 H 67.98645247882249 37.59554172824751 19.305874182419107 H 0.0 **** 0.06
36255 H 66.97987736680975 36.49002349190721 18.339888932167174 H 0.0 **** 0.06
36256 C 27.670171010609685 96.13006680249029 86.21803656575611 C 0.0 **** -0.24
36257 H 28.148258274283144 97.00795729464622 86.65261730891001 H 0.0 **** 0.06
36258 H 28.247381952910608 95.24013530020136 86.46966533979611 H 0.0 **** 0.06
36259 H 27.626686351790276 96.23990463988383 85.13394276526176 H 0.0 **** 0.06
36260 H 26.65930061905115 96.03256835006019 86.61367991591783 H 0.0 **** 0.06
36261 C 70.14520792731824 118.32967826128903 61.29604965402743 C 0.0 **** -0.24
36262 H 70.08936128166823 118.90811476891153 62.2172183791389 H 0.0 **** 0.06
36263 H 69.35019320701508 118.64409508620133 60.61977365053471 H 0.0 **** 0.06
36264 H 70.03011462007316 117.27023538458505 61.52491836656125 H 0.0 **** 0.06
36265 H 71.11315657063003 118.49531190075216 60.821234331489194 H 0.0 **** 0.06
36266 C 74.87266874107038 18.03597986632269 33.72387831085045 C 0.0 **** -0.24
36267 H 74.22842149624634 18.476550556650807 32.962217892588626 H 0.0 **** 0.06
36268 H 75.59912655831863 17.376909831710577 33.24926240737295 H 0.0 **** 0.06
36269 H 74.26577550378542 17.463317742942422 34.42489845042313 H 0.0 **** 0.06
36270 H 75.39608348418787 18.82891662341092 34.25962542550339 H 0.0 **** 0.06
36271 C 28.14281386491797 28.81186481616158 88.97560186198868 C 0.0 **** -0.24
36272 H 28.242175072370202 28.276795969304374 89.91936463727569 H 0.0 **** 0.06
36273 H 27.320727561488525 28.384973381918734 88.40073282670585 H 0.0 **** 0.06
36274 H 29.068834867150485 28.72082222431512 88.40751124933422 H 0.0 **** 0.06
36275 H 27.940066776502846 29.863642918271417 89.17435280584183 H 0.0 **** 0.06
36276 C 81.78463965520567 20.462044605176512 18.809453331934378 C 0.0 **** -0.24
36277 H 82.47221911020571 20.61566286032121 17.976232087915463 H 0.0 **** 0.06
36278 H 80.99877156821756 19.7697436960359 18.507999605366052 H 0.0 **** 0.06
36279 H 81.34064453076189 21.416586466308758 19.09261009937859 H 0.0 **** 0.06
36280 H 82.32904790576876 20.047377979910284 19.658131624341877 H 0.0 **** 0.06
36281 C 27.306811609445468 17.40115341327538 74.32779657227977 C 0.0 **** -0.24
36282 H 26.37937988953665 17.853887569589517 74.6799283884097 H 0.0 **** 0.06
36283 H 28.09035851412525 17.55835961070153 75.0693045302827 H 0.0 **** 0.06
36284 H 27.600252638417942 17.86023852518764 73.3840101757319 H 0.0 **** 0.06
36285 H 27.154177862037862 16.33163097172246 74.17975497910783 H 0.0 **** 0.06
36286 C 36.24280807120465 116.0688285995225 96.65436849698159 C 0.0 **** -0.24
36287 H 35.26018467356351 115.59696389871762 96.62894064549866 H 0.0 **** 0.06
36288 H 36.73458603959363 115.83190560716986 97.59798786509973 H 0.0 **** 0.06
36289 H 36.12896382556254 117.14896108410449 96.56398677367977 H 0.0 **** 0.06
36290 H 36.84579152105378 115.69644797306117 95.82668549523092 H 0.0 **** 0.06
36291 C 20.516493636961115 24.294299605343042 117.0732423222913 C 0.0 **** -0.24
36292 H 21.44861028067578 24.447720409559906 117.61687011529784 H 0.0 **** 0.06
36293 H 19.94046166614484 25.219069830380903 117.0710731809992 H 0.0 **** 0.06
36294 H 19.939352866936645 23.50614929196506 117.55862597240633 H 0.0 **** 0.06
36295 H 20.739055944670213 24.000850613874604 116.04674032471888 H 0.0 **** 0.06
36296 C 53.52370392085446 94.20459988745128 19.73215490810537 C 0.0 **** -0.24
36297 H 54.381993187230066 94.49537292241908 20.338410782160935 H 0.0 **** 0.06
36298 H 53.64116238653571 94.60191115267173 18.723110837057334 H 0.0 **** 0.06
36299 H 52.61187495418511 94.60317935018816 20.17678499061475 H 0.0 **** 0.06
36300 H 53.46206093656281 93.11709766046178 19.68996929338249 H 0.0 **** 0.06
36301 C 112.00062664749342 22.50190579074831 79.44931379344345 C 0.0 **** -0.24
36302 H 111.11241478130019 22.944834046853913 79.89889666551755 H 0.0 **** 0.06
36303 H 112.41168939350625 23.186039391264842 78.70619720034216 H 0.0 **** 0.06
36304 H 111.73469957705028 21.56010885617559 78.96815585533494 H 0.0 **** 0.06
36305 H 112.74534559807739 22.315216887736 80.22348208777137 H 0.0 **** 0.06
36306 C 39.351992763344306 45.86049077930926 105.64080015772538 C 0.0 **** -0.24
36307 H 40.1345486549865 45.53568651139392 104.95455816307964 H 0.0 **** 0.06
36308 H 39.021209302433114 45.01271267531121 106.24139086830476 H 0.0 **** 0.06
36309 H 38.5093301529282 46.25316121160631 105.07156449706181 H 0.0 **** 0.06
36310 H 39.74322736502259 46.63896271408919 106.29478825027772 H 0.0 **** 0.06
36311 C 43.3060878279168 51.63822679934657 6.215333818428462 C 0.0 **** -0.24
36312 H 42.39037343170298 52.04730783618089 5.78638332816422 H 0.0 **** 0.06
36313 H 43.52073668556963 50.672434154058806 5.758173029181933 H 0.0 **** 0.06
36314 H 43.178115152650065 51.511458442497315 7.290115339499891 H 0.0 **** 0.06
36315 H 44.13252194577217 52.322576556781655 6.025983419326707 H 0.0 **** 0.06
36316 C 78.47169179625496 18.14881580690082 82.10843196716888 C 0.0 **** -0.24
36317 H 78.68419994097272 17.217804544067707 82.63443759132463 H 0.0 **** 0.06
36318 H 77.39306154126783 18.30245284350648 82.0635091485899 H 0.0 **** 0.06
36319 H 78.87360081014592 18.092723403791116 81.09661065043366 H 0.0 **** 0.06
36320 H 78.93513930259991 18.980186144526492 82.63903002992777 H 0.0 **** 0.06
36321 C 63.34821033901532 79.95745488474961 99.52503971038936 C 0.0 **** -0.24
36322 H 62.88019280669676 79.47491113731019 100.38328484565284 H 0.0 **** 0.06
36323 H 63.8777287518644 79.21010861687978 98.93279105683462 H 0.0 **** 0.06
36324 H 64.0533702293724 80.71209920474678 99.8724659758995 H 0.0 **** 0.06
36325 H 62.58135617568039 80.43052870777728 98.91211280884505 H 0.0 **** 0.06
36326 C 111.319140541984 91.00382420467662 26.257537930907567 C 0.0 **** -0.24
36327 H 111.12147383651333 89.9372122923372 26.361991003404057 H 0.0 **** 0.06
36328 H 112.08863392353234 91.1570972052125 25.500335881952836 H 0.0 **** 0.06
36329 H 111.66243185013245 91.40417871718711 27.211497529282084 H 0.0 **** 0.06
36330 H 110.40519870094089 91.51490676812736 25.956327967220744 H 0.0 **** 0.06
36331 C 93.02374329013736 70.01682538471147 88.87928407594472 C 0.0 **** -0.24
36332 H 93.28032579937246 70.09840340987586 89.9356888436015 H 0.0 **** 0.06
36333 H 92.79446579551552 68.97762557219491 88.64191897126278 H 0.0 **** 0.06
36334 H 93.86594706901974 70.35179859923281 88.27395416588419 H 0.0 **** 0.06
36335 H 92.15365129797033 70.6383200102562 88.66765486053802 H 0.0 **** 0.06
36336 C 60.2505587495931 118.20201719796036 5.387519954981016 C 0.0 **** -0.24
36337 H 60.46272678278552 117.68229099613585 6.322251474741952 H 0.0 **** 0.06
36338 H 60.551447757198474 119.24586469360955 5.475926811348133 H 0.0 **** 0.06
36339 H 59.18158527689289 118.14874553888721 5.177295051803588 H 0.0 **** 0.06
36340 H 60.80380570729031 117.73018629615515 4.5755612330247875 H 0.0 **** 0.06
36341 C 76.50800573888299 51.60875644416444 70.72935442645314 C 0.0 **** -0.24
36342 H 76.2032009913413 50.63778716416394 70.33982618305541 H 0.0 **** 0.06
36343 H 75.75838663526903 52.356434072873526 70.46742119531768 H 0.0 **** 0.06
36344 H 77.46832220955426 51.88877151663698 70.29703698504929 H 0.0 **** 0.06
36345 H 76.6006873159397 51.55167391987271 71.81481810419328 H 0.0 **** 0.06
36346 C 48.63719206124193 111.69349557819228 69.02265068761753 C 0.0 **** -0.24
36347 H 48.18534218527455 112.05959322233042 68.10078314298323 H 0.0 **** 0.06
36348 H 49.71843365141629 111.82015501330181 68.97275527814992 H 0.0 **** 0.06
36349 H 48.39977646845355 110.63724576936616 69.14798514245464 H 0.0 **** 0.06
36350 H 48.24380948390771 112.25706659253798 69.8692051645358 H 0.0 **** 0.06
36351 C 72.69381270285922 79.64336997655025 10.067694378546065 C 0.0 **** -0.24
36352 H 72.96961569404573 78.6685631288947 9.667191185051394 H 0.0 **** 0.06
36353 H 72.94854061720312 80.41865486628393 9.345080650568207 H 0.0 **** 0.06
36354 H 73.23537093544684 79.820068343934 10.997841156916678 H 0.0 **** 0.06
36355 H 71.62102928776787 79.66573018488339 10.261806175506905 H 0.0 **** 0.06
36356 C 42.692250058457866 40.876103285645314 96.79510267340538 C 0.0 **** -0.24
36357 H 43.592480875556085 40.68354838413836 97.37912380543875 H 0.0 **** 0.06
36358 H 41.834965495775776 40.95232646004152 97.46402702009217 H 0.0 **** 0.06
36359 H 42.534494399685954 40.05784554029702 96.09222714754969 H 0.0 **** 0.06
36360 H 42.80944436231384 41.81013367902045 96.24503874563243 H 0.0 **** 0.06
36361 C 110.57967211687978 5.266205767824106 47.71506403318947 C 0.0 **** -0.24
36362 H 110.74517682489004 5.590816429298178 48.74241532942191 H 0.0 **** 0.06
36363 H 111.0559301577479 5.969181843956354 47.0313985438747 H 0.0 **** 0.06
36364 H 109.50872535515713 5.231565162833441 47.512819909533334 H 0.0 **** 0.06
36365 H 111.0078774246616 4.2741724433175445 47.57407955324517 H 0.0 **** 0.06
36366 C 106.96398941254111 79.02899844067764 32.073942364618944 C 0.0 **** -0.24
36367 H 107.73291917654325 79.24507186631291 31.333028880333302 H 0.0 **** 0.06
36368 H 107.07117444597051 77.99967699485768 32.41924574330291 H 0.0 **** 0.06
36369 H 105.97951140823696 79.16112581678678 31.62582525120726 H 0.0 **** 0.06
36370 H 107.0730347766297 79.70899818968667 32.919179050430586 H 0.0 **** 0.06
36371 C 92.48789689344966 85.15630980431601 53.831052004035946 C 0.0 **** -0.24
36372 H 91.81206231989569 85.24843494016213 52.9812025341204 H 0.0 **** 0.06
36373 H 92.88206382886375 84.14010615382125 53.8739733394592 H 0.0 **** 0.06
36374 H 91.94453360685719 85.37506896347097 54.751047884263535 H 0.0 **** 0.06
36375 H 93.31085138115753 85.86185697726299 53.71926365653434 H 0.0 **** 0.06
36376 C 39.39225409015573 65.84196915540807 109.86326035816506 C 0.0 **** -0.24
36377 H 39.42648433828231 65.69831979169086 108.78361148869499 H 0.0 **** 0.06
36378 H 40.069948537991706 65.13709541116225 110.34539813604019 H 0.0 **** 0.06
36379 H 38.37660357158174 65.67151829758626 110.21973766938117 H 0.0 **** 0.06
36380 H 39.695979912767456 66.86094312119309 110.10429413854388 H 0.0 **** 0.06
36381 C 84.60097395864858 35.00437122294217 10.336300381355954 C 0.0 **** -0.24
36382 H 85.46253086826678 35.16428891734974 10.983979736614799 H 0.0 **** 0.06
36383 H 84.86052612115176 35.27663070997852 9.312478565980427 H 0.0 **** 0.06
36384 H 83.76972215968564 35.62219198822793 10.677850656292208 H 0.0 **** 0.06
36385 H 84.31111668549016 33.954373276212536 10.370892566536554 H 0.0 **** 0.06
36386 C 55.89721998236272 36.57202344431988 114.18880829118115 C 0.0 **** -0.24
36387 H 56.7569149402353 37.19936971875569 114.4224549249418 H 0.0 **** 0.06
36388 H 56.242739495941144 35.61355534216966 113.79926646955369 H 0.0 **** 0.06
36389 H 55.278492199237625 37.06612706133794 113.43940243136166 H 0.0 **** 0.06
36390 H 55.31128251339042 36.40706210983285 115.09322613347808 H 0.0 **** 0.06
36391 C 115.64303447615585 46.08381632089364 90.83586555618973 C 0.0 **** -0.24
36392 H 115.43416377923856 45.02507481292554 90.98909093514155 H 0.0 **** 0.06
36393 H 116.10583739990192 46.22378024373749 89.85791706891837 H 0.0 **** 0.06
36394 H 116.32105258102919 46.43623832311034 91.61265426920448 H 0.0 **** 0.06
36395 H 114.71136374751532 46.64787476273685 90.88189063431702 H 0.0 **** 0.06
36396 C 31.244846210450476 86.82546449821007 19.131008360524334 C 0.0 **** -0.24
36397 H 30.231368708669493 86.44965384225787 19.278278140264234 H 0.0 **** 0.06
36398 H 31.80869527924716 86.7206764036232 20.057740916778357 H 0.0 **** 0.06
36399 H 31.203985967322183 87.87730627126325 18.84668822465406 H 0.0 **** 0.06
36400 H 31.733204249851553 86.25431014398487 18.341999077876835 H 0.0 **** 0.06
36401 C 98.74450643380683 51.86862541083869 109.27895687823258 C 0.0 **** -0.24
36402 H 99.20692515148352 51.99977659117249 108.30105922480342 H 0.0 **** 0.06
36403 H 97.66604870233178 52.010829216700444 109.19294106656915 H 0.0 **** 0.06
36404 H 99.15308488815836 52.600729055358656 109.97590486877532 H 0.0 **** 0.06
36405 H 98.94975051379825 50.863353240758585 109.64615201350203 H 0.0 **** 0.06
36406 C 1.7621225356627583 108.01280765167306 112.9391748991062 C 0.0 **** -0.24
36407 H 1.3327348731787243 108.47026618600549 112.04778693617482 H 0.0 **** 0.06
36408 H 1.9904199434827792 106.96694728448338 112.7354939826156 H 0.0 **** 0.06
36409 H 1.047808926133019 108.07790071548291 113.75991513151979 H 0.0 **** 0.06
36410 H 2.677123804242587 108.53859378465432 113.21186004018676 H 0.0 **** 0.06
36411 C 118.4856176750826 38.45371801292458 109.21014928686151 C 0.0 **** -0.24
36412 H 117.45912570000054 38.80956845555829 109.11903788858567 H 0.0 **** 0.06
36413 H 118.66916927743011 37.682878009588194 108.46148441906499 H 0.0 **** 0.06
36414 H 118.63810510309453 38.03869554903099 110.2055579488985 H 0.0 **** 0.06
36415 H 119.17322235126865 39.28454368044925 109.05302491379587 H 0.0 **** 0.06
36416 C 92.55531017238772 75.66826103467645 62.18367037719128 C 0.0 **** -0.24
36417 H 91.61773107537005 75.56923856570668 62.72915956873436 H 0.0 **** 0.06
36418 H 92.53924300852859 75.01349018300456 61.3125231254167 H 0.0 **** 0.06
36419 H 93.38451673391947 75.38801175915418 62.83336907556151 H 0.0 **** 0.06
36420 H 92.68046791658776 76.701088161858 61.85954509948499 H 0.0 **** 0.06
36421 C 95.7896272122367 92.8272778558754 86.83265421574771 C 0.0 **** -0.24
36422 H 96.5846772697054 92.21775894579676 87.2612934924247 H 0.0 **** 0.06
36423 H 94.844763565743 92.59161941201302 87.32477055956451 H 0.0 **** 0.06
36424 H 95.7058367226299 92.6169439785709 85.76616304557885 H 0.0 **** 0.06
36425 H 96.02185601421911 93.88257258784787 86.97814105008624 H 0.0 **** 0.06
36426 C 22.25013547062801 88.25514882522208 66.07707041262165 C 0.0 **** -0.24
36427 H 21.764372996127776 87.30219334231319 65.86411428220336 H 0.0 **** 0.06
36428 H 22.593574752751948 88.26271981901371 67.11158562092592 H 0.0 **** 0.06
36429 H 21.53955361745662 89.0674163818158 65.92310147493552 H 0.0 **** 0.06
36430 H 23.101389203412708 88.38515103822786 65.41023687650898 H 0.0 **** 0.06
36431 C 31.180711175433714 114.56253182978625 100.84257695521643 C 0.0 **** -0.24
36432 H 31.98791369204143 114.21967066952263 101.49002649298694 H 0.0 **** 0.06
36433 H 30.247426161701085 114.58265217390377 101.40612719923075 H 0.0 **** 0.06
36434 H 31.080218374752775 113.88233027734421 99.99668120124159 H 0.0 **** 0.06
36435 H 31.406980018491694 115.56445763507023 100.47840716594794 H 0.0 **** 0.06
36436 C 46.653376509052805 7.655693836479955 92.9448895060687 C 0.0 **** -0.24
36437 H 46.05032656141117 7.325827730650403 93.79116529737658 H 0.0 **** 0.06
36438 H 46.88288346947223 8.715572218301944 93.0553428750105 H 0.0 **** 0.06
36439 H 46.09795631407178 7.497771573663655 92.02010057441422 H 0.0 **** 0.06
36440 H 47.58084650587401 7.082987030208443 92.91479055828941 H 0.0 **** 0.06
36441 C 71.60162735279968 2.516851072540783 14.50962333754012 C 0.0 **** -0.24
36442 H 71.39830076228242 1.5133136407372643 14.134606609598592 H 0.0 **** 0.06
36443 H 72.5233126373312 2.5070646085651536 15.091072394667464 H 0.0 **** 0.06
36444 H 70.7755649447642 2.842229240069841 15.141094992623778 H 0.0 **** 0.06
36445 H 71.70834700080962 3.202877926100694 13.669406320717485 H 0.0 **** 0.06
36446 C 84.03766284197869 17.952830238485603 91.35219382935344 C 0.0 **** -0.24
36447 H 83.492073420048 18.539762137701075 90.61272053786351 H 0.0 **** 0.06
36448 H 84.14030947138536 16.927143419064663 90.99778475576721 H 0.0 **** 0.06
36449 H 83.49223129666254 17.96027732304725 92.29609242695116 H 0.0 **** 0.06
36450 H 85.02694758545005 18.386414119550665 91.50044805762957 H 0.0 **** 0.06
36451 C 12.411224710455315 69.271240216043 32.083875302414754 C 0.0 **** -0.24
36452 H 12.462969895991193 70.25610430356593 32.547836208019106 H 0.0 **** 0.06
36453 H 12.965916475060226 68.5550893882299 32.69119044508702 H 0.0 **** 0.06
36454 H 12.84706399451909 69.31602968071257 31.085995264769252 H 0.0 **** 0.06
36455 H 11.36947598632338 68.95794263208262 32.012862567236084 H 0.0 **** 0.06
36456 C 15.30251240855549 70.41792806804517 9.931292315656663 C 0.0 **** -0.24
36457 H 15.848603044544465 70.49772225927791 8.99080917842673 H 0.0 **** 0.06
36458 H 14.285898754346892 70.07848684631728 9.732357864710082 H 0.0 **** 0.06
36459 H 15.27251586605172 71.39389092106015 10.416633779355209 H 0.0 **** 0.06
36460 H 15.80404738904905 69.70273097371432 10.58194525598168 H 0.0 **** 0.06
36461 C 88.62882093426197 80.97139676891169 52.13553597264013 C 0.0 **** -0.24
36462 H 87.87707370540659 81.47325086022238 52.745406608306354 H 0.0 **** 0.06
36463 H 89.56486652421069 81.5277813930087 52.18346685329948 H 0.0 **** 0.06
36464 H 88.28514315107367 80.92345265331784 51.10225938302196 H 0.0 **** 0.06
36465 H 88.7861260568825 79.96081627709998 52.513380884121375 H 0.0 **** 0.06
36466 C 81.5014067421946 84.71363795997291 70.43696030384376 C 0.0 **** -0.24
36467 H 82.04556274421915 85.38642153941584 71.09972652512084 H 0.0 **** 0.06
36468 H 80.42928333884066 84.82929363673338 70.60189318221472 H 0.0 **** 0.06
36469 H 81.79212505357481 83.68424758675982 70.64636394962127 H 0.0 **** 0.06
36470 H 81.73766356077539 84.95385588699983 69.40054889559843 H 0.0 **** 0.06
36471 C 113.98391950294854 112.71121946888414 84.31425627762792 C 0.0 **** -0.24
36472 H 114.28392464568607 112.60231828642509 83.27234554380627 H 0.0 **** 0.06
36473 H 114.63025073302879 112.09814251043164 84.94415252815469 H 0.0 **** 0.06
36474 H 112.94933627670115 112.38640559002383 84.43068710942393 H 0.0 **** 0.06
36475 H 114.07197606595993 113.7557825028072 84.6108378083745 H 0.0 **** 0.06
36476 C 26.798234445179276 40.492969529415845 23.827237800209275 C 0.0 **** -0.24
36477 H 26.74469833041411 41.51088287741695 24.21250112690717 H 0.0 **** 0.06
36478 H 27.75596613126328 40.050130093765006 24.101549393601715 H 0.0 **** 0.06
36479 H 26.703686918328344 40.51003138648764 22.741522265677474 H 0.0 **** 0.06
36480 H 25.988455362012132 39.899846688690985 24.253471030313563 H 0.0 **** 0.06
36481 C 101.03720936808145 113.38757724278508 17.223015823636462 C 0.0 **** -0.24
36482 H 101.31312155501706 112.41466102337034 17.628226871483648 H 0.0 **** 0.06
36483 H 100.06690192091725 113.31556188948497 16.73169534300271 H 0.0 **** 0.06
36484 H 101.78796545162498 113.70658636988344 16.500763106455345 H 0.0 **** 0.06
36485 H 100.98103862773166 114.11499727095224 18.033970586570728 H 0.0 **** 0.06
36486 C 30.599739913681844 3.0785470893477083 100.16126428338532 C 0.0 **** -0.24
36487 H 31.3149814948369 2.938604017594855 99.35121432099504 H 0.0 **** 0.06
36488 H 31.083810711771434 3.6043724024672485 100.9847925617162 H 0.0 **** 0.06
36489 H 30.249049292335656 2.1066451013054177 100.5070794480294 H 0.0 **** 0.06
36490 H 29.753991678460693 3.6649386450485224 99.80274871828095 H 0.0 **** 0.06
36491 C 56.909320608377136 18.12936011668009 33.97959603514825 C 0.0 **** -0.24
36492 H 56.22282294357466 18.972896572833577 33.90786204510074 H 0.0 **** 0.06
36493 H 56.71680056911564 17.5811761037111 34.90268107054723 H 0.0 **** 0.06
36494 H 57.93545062254022 18.49464819770222 33.98072750731947 H 0.0 **** 0.06
36495 H 56.75987756196009 17.467108754941876 33.12612690843806 H 0.0 **** 0.06
36496 C 34.90595447838854 7.474582803390007 115.51586341537913 C 0.0 **** -0.24
36497 H 33.89576175502236 7.126176664632993 115.29899147016906 H 0.0 **** 0.06
36498 H 35.0862405800076 8.412533563349527 114.98974468496901 H 0.0 **** 0.06
36499 H 35.62649991636613 6.727279845581492 115.18436062890946 H 0.0 **** 0.06
36500 H 35.01326881525591 7.633280846642975 116.58837498539279 H 0.0 **** 0.06
36501 C 97.52281627568206 91.21862619081548 106.61408096647526 C 0.0 **** -0.24
36502 H 96.9067733905431 90.90333760125904 107.45578863325969 H 0.0 **** 0.06
36503 H 98.48464998623709 90.70812317909287 106.65731438462421 H 0.0 **** 0.06
36504 H 97.67962967431251 92.29584437096551 106.66234144391191 H 0.0 **** 0.06
36505 H 97.01923649082104 90.96643249834034 105.6802012190775 H 0.0 **** 0.06
36506 C 68.74331144634013 116.59368438454638 78.10614407485261 C 0.0 **** -0.24
36507 H 69.57276883419922 117.0427847548945 78.65262360938121 H 0.0 **** 0.06
36508 H 67.80409629936386 116.85060103825985 78.59576055282199 H 0.0 **** 0.06
36509 H 68.86207005204895 115.5100991872207 78.09377067004624 H 0.0 **** 0.06
36510 H 68.73593271671285 116.9701025776982 77.08344448968592 H 0.0 **** 0.06
36511 C 72.48955585664686 86.03408935461633 74.03026280976792 C 0.0 **** -0.24
36512 H 71.92133527528483 86.72043324968817 74.65872923311434 H 0.0 **** 0.06
36513 H 73.01768844298314 85.31834739285495 74.65941773728093 H 0.0 **** 0.06
36514 H 73.21021986335504 86.5973729076469 73.43713919926088 H 0.0 **** 0.06
36515 H 71.80933447084058 85.5024047553479 73.36559005692567 H 0.0 **** 0.06
36516 C 19.934129982513696 2.6201574506680867 98.08434522210428 C 0.0 **** -0.24
36517 H 19.689385947248724 3.3306931966162523 98.87459008745265 H 0.0 **** 0.06
36518 H 19.909843758305755 1.6075848636512617 98.48634331789412 H 0.0 **** 0.06
36519 H 20.930593602743954 2.8359242561552485 97.69949917613545 H 0.0 **** 0.06
36520 H 19.206424685177268 2.709426165722787 97.27791503207658 H 0.0 **** 0.06
36521 C 95.4850409888758 88.9426493804159 28.04082526321396 C 0.0 **** -0.24
36522 H 95.94994061787975 89.61728945952632 27.32236327387406 H 0.0 **** 0.06
36523 H 95.9212564795761 89.1064792905481 29.026827011157053 H 0.0 **** 0.06
36524 H 95.65749585772329 87.91142193109741 27.734610033270663 H 0.0 **** 0.06
36525 H 94.41324716076394 89.137015802792 28.080007534077083 H 0.0 **** 0.06
36526 C 43.23352804327669 54.00053545660508 26.749733798170467 C 0.0 **** -0.24
36527 H 43.69704141139093 54.35602065966651 25.82978479788258 H 0.0 **** 0.06
36528 H 44.006434973263566 53.64762256160961 27.431926505182872 H 0.0 **** 0.06
36529 H 42.5498604406841 53.18400305841496 26.519533964379377 H 0.0 **** 0.06
36530 H 42.68060340922426 54.81589840982957 27.215957093724654 H 0.0 **** 0.06
36531 C 65.38270186122213 64.81313704049396 8.875503492544937 C 0.0 **** -0.24
36532 H 65.67212198438074 64.83209061837132 9.926453231419657 H 0.0 **** 0.06
36533 H 65.28257036416451 63.7783551619265 8.545705369379846 H 0.0 **** 0.06
36534 H 66.14637486759557 65.31236814912825 8.279839696066603 H 0.0 **** 0.06
36535 H 64.43057658797457 65.3275902262913 8.751940320666392 H 0.0 **** 0.06
36536 C 59.10876252319167 20.79368779836457 42.5110514692056 C 0.0 **** -0.24
36537 H 59.95284602236194 20.141106128238178 42.28764872074072 H 0.0 **** 0.06
36538 H 58.41298163891793 20.274986670029183 43.17010278367576 H 0.0 **** 0.06
36539 H 58.60130259541381 21.060228639860455 41.58399000150942 H 0.0 **** 0.06
36540 H 59.46956521298466 21.697900284997445 43.00072864415094 H 0.0 **** 0.06
36541 C 9.141114753111388 115.86382857895876 68.72247034034893 C 0.0 **** -0.24
36542 H 8.209516485571157 116.21811497759856 68.28317171313694 H 0.0 **** 0.06
36543 H 9.4315650058737 114.92470343433496 68.25039275625005 H 0.0 **** 0.06
36544 H 9.001480666297507 115.70565808164275 69.7919669502673 H 0.0 **** 0.06
36545 H 9.923222034508072 116.60637013787152 68.5645089603425 H 0.0 **** 0.06
36546 C 32.957631359585406 26.910346700417335 92.2536430342999 C 0.0 **** -0.24
36547 H 33.64999957620023 27.468372484840472 91.62321139479167 H 0.0 **** 0.06
36548 H 32.2607757066304 26.35502163831967 91.62444517363025 H 0.0 **** 0.06
36549 H 32.403588926768805 27.60245040883939 92.88687833148902 H 0.0 **** 0.06
36550 H 33.51667353837317 26.213555069730035 92.87869972968514 H 0.0 **** 0.06
36551 C 37.61085291615538 0.7291421627675732 5.264966432184622 C 0.0 **** -0.24
36552 H 37.3610702249307 0.41874091239265 6.279821236291667 H 0.0 **** 0.06
36553 H 38.663404688010274 1.010721650243056 5.219541833105978 H 0.0 **** 0.06
36554 H 36.99375231503288 1.582425672655063 4.984414047489395 H 0.0 **** 0.06
36555 H 37.425195139743494 -0.09526598882860071 4.577087146545949 H 0.0 **** 0.06
36556 C 31.553908309195947 47.150518357855766 117.55090364244302 C 0.0 **** -0.24
36557 H 31.103458092957794 46.71977052175678 116.6569671555939 H 0.0 **** 0.06
36558 H 31.183267297575867 46.626241376464456 118.43252404720225 H 0.0 **** 0.06
36559 H 31.29026681027898 48.20590592988568 117.6178721901903 H 0.0 **** 0.06
36560 H 32.63730562579315 47.04969001086661 117.49625569837524 H 0.0 **** 0.06
36561 C 90.60308012805356 101.51847641919841 5.957001915667114 C 0.0 **** -0.24
36562 H 90.34814236059813 100.45916681437564 5.944024319485438 H 0.0 **** 0.06
36563 H 91.32582772214036 101.72784952220604 5.167917362338725 H 0.0 **** 0.06
36564 H 91.03650930957508 101.7759528419632 6.923472097517369 H 0.0 **** 0.06
36565 H 89.70273218301568 102.11015932214556 5.7933698478533024 H 0.0 **** 0.06
36566 C 58.13335837851656 38.637303694606516 23.88239206997195 C 0.0 **** -0.24
36567 H 58.05613602076778 38.64068792557984 22.795311667615984 H 0.0 **** 0.06
36568 H 58.820708398522925 37.85061759671666 24.19479493569694 H 0.0 **** 0.06
36569 H 57.15041480015981 38.45603962629957 24.315960709223162 H 0.0 **** 0.06
36570 H 58.507447790917524 39.60377763090099 24.222641845455385 H 0.0 **** 0.06
36571 C 88.49703020020172 73.47830513836703 74.32647751954619 C 0.0 **** -0.24
36572 H 88.81853168278451 73.88843784623185 75.28476695002462 H 0.0 **** 0.06
36573 H 87.77362280401013 74.15346223804849 73.86719077245465 H 0.0 **** 0.06
36574 H 88.03585999440946 72.50338789668092 74.48551525664547 H 0.0 **** 0.06
36575 H 89.36074724612627 73.37006531855707 73.67044735638254 H 0.0 **** 0.06
36576 C 101.4284148572504 58.48103215336224 79.42443742635834 C 0.0 **** -0.24
36577 H 101.048810046965 57.46798582534981 79.55616393020841 H 0.0 **** 0.06
36578 H 102.3409461111932 58.605723761140304 80.0083932045292 H 0.0 **** 0.06
36579 H 100.67875038003947 59.19604229273077 79.76367075890349 H 0.0 **** 0.06
36580 H 101.64536913902987 58.65359123551753 78.3701017144038 H 0.0 **** 0.06
36581 C 88.71436495998807 49.85817963115491 21.52085906605015 C 0.0 **** -0.24
36582 H 89.25974202036164 50.2683684450806 22.370959991471295 H 0.0 **** 0.06
36583 H 89.34550758152866 49.89337685626131 20.63364396501447 H 0.0 **** 0.06
36584 H 87.81299674232002 50.446112151629904 21.35013938854462 H 0.0 **** 0.06
36585 H 88.43878189221394 48.82430541488563 21.730815478179807 H 0.0 **** 0.06
36586 C 36.89800332319794 38.11687607339056 105.18214985216335 C 0.0 **** -0.24
36587 H 35.913810223616224 38.57560531879753 105.08847500918492 H 0.0 **** 0.06
36588 H 37.663262328172095 38.838280531583706 104.89549703279553 H 0.0 **** 0.06
36589 H 36.955887412404536 37.24574149681453 104.53005514053388 H 0.0 **** 0.06
36590 H 37.057960359752144 37.80904688318938 106.21577093426231 H 0.0 **** 0.06
36591 C 4.421643396816776 49.2140647636042 97.04699179279339 C 0.0 **** -0.24
36592 H 4.552849858753362 49.306380419498026 98.12515377377474 H 0.0 **** 0.06
36593 H 3.757023937602284 50.00294701441243 96.69305054086846 H 0.0 **** 0.06
36594 H 3.988798543712349 48.24172459985502 96.81493485300717 H 0.0 **** 0.06
36595 H 5.3904266581630935 49.30776867876514 96.55507492138543 H 0.0 **** 0.06
36596 C 52.69207353580552 42.72400816933691 29.14452329167755 C 0.0 **** -0.24
36597 H 53.352003840048354 42.51163604636233 29.986393066327096 H 0.0 **** 0.06
36598 H 51.97733461754896 41.908889319550624 29.0288939693364 H 0.0 **** 0.06
36599 H 53.283950832617535 42.8211967383406 28.234306709793373 H 0.0 **** 0.06
36600 H 52.15530301128004 43.65483336827694 29.330123601821114 H 0.0 **** 0.06
36601 C 45.37744438467536 66.8617194587344 108.85598766232141 C 0.0 **** -0.24
36602 H 45.398292505847394 66.39513078802855 107.87060448964505 H 0.0 **** 0.06
36603 H 44.91471445405614 67.84574122734082 108.78153814163909 H 0.0 **** 0.06
36604 H 46.395750902308976 66.96656380384968 109.22941372836434 H 0.0 **** 0.06
36605 H 44.80132196029007 66.23900533146625 109.54046603508931 H 0.0 **** 0.06
36606 C 78.78062435822713 54.18784787830212 76.4360381136627 C 0.0 **** -0.24
36607 H 79.76062885641258 54.56524069195956 76.72982456328614 H 0.0 **** 0.06
36608 H 78.28641160657463 53.747250774522286 77.30128458391792 H 0.0 **** 0.06
36609 H 78.90124304034714 53.43065722308859 75.66106131642823 H 0.0 **** 0.06
36610 H 78.1767918195211 55.00860100492498 76.05087444505855 H 0.0 **** 0.06
36611 C 110.16815492096548 35.38253654417355 115.46908505851255 C 0.0 **** -0.24
36612 H 110.92942403222519 34.9352741773685 116.10771581642305 H 0.0 **** 0.06
36613 H 109.36065571316385 34.66595669534503 115.3108666536497 H 0.0 **** 0.06
36614 H 110.60968594608501 35.6494462205101 114.50992446968735 H 0.0 **** 0.06
36615 H 109.77156921356018 36.27703273385592 115.94902244144026 H 0.0 **** 0.06
36616 C 41.922413238308586 66.27180739728539 27.663181407360852 C 0.0 **** -0.24
36617 H 41.02198453955334 66.123793594662 28.260174455217538 H 0.0 **** 0.06
36618 H 41.68763002613642 66.12215735378896 26.609812422365223 H 0.0 **** 0.06
36619 H 42.684202951803705 65.5550617532952 27.97226193067938 H 0.0 **** 0.06
36620 H 42.29403601658835 67.28509441421039 27.813392795447356 H 0.0 **** 0.06
36621 C 7.884798514680597 35.05274597120979 111.98046728752317 C 0.0 **** -0.24
36622 H 7.425707177626691 34.119364661634904 112.30694404130195 H 0.0 **** 0.06
36623 H 7.322327101996677 35.459274998404794 111.13883509980899 H 0.0 **** 0.06
36624 H 8.912648140463261 34.862864014968295 111.6725508797168 H 0.0 **** 0.06
36625 H 7.877410675824706 35.76775144851405 112.80264494919982 H 0.0 **** 0.06
36626 C 21.708476584306368 69.55259148399807 22.255967337301342 C 0.0 **** -0.24
36627 H 20.867986563907664 69.10401187606726 22.785760167909075 H 0.0 **** 0.06
36628 H 22.61396050546358 69.44211631729144 22.853227513131998 H 0.0 **** 0.06
36629 H 21.508944176976115 70.61063215238744 22.088849778854353 H 0.0 **** 0.06
36630 H 21.842335729165313 69.05160013621685 21.297263543948873 H 0.0 **** 0.06
36631 C 100.35699242722905 22.902331676533123 42.299090818694026 C 0.0 **** -0.24
36632 H 101.22528786375904 23.506519516673393 42.035349120158514 H 0.0 **** 0.06
36633 H 100.41472186026274 22.625328708852635 43.35227470835366 H 0.0 **** 0.06
36634 H 100.34062110326227 22.001533451849866 41.685451578975176 H 0.0 **** 0.06
36635 H 99.44734696699288 23.47731120611998 42.123653395887004 H 0.0 **** 0.06
36636 C 1.282907565721823 84.7678076384486 17.256892251488807 C 0.0 **** -0.24
36637 H 2.099337945041084 84.49515479087395 16.588549974630766 H 0.0 **** 0.06
36638 H 1.236727597070347 85.85362793037365 17.34904626846148 H 0.0 **** 0.06
36639 H 1.4546279025661981 84.32690432515116 18.23862487235388 H 0.0 **** 0.06
36640 H 0.3419377819707048 84.39767580442228 16.85067578018331 H 0.0 **** 0.06
36641 C 29.00932095935326 101.7912942289309 65.20908952562712 C 0.0 **** -0.24
36642 H 29.555693230253837 102.57927302490756 64.69011229392419 H 0.0 **** 0.06
36643 H 28.08763628115628 102.20086008033888 65.6236384308603 H 0.0 **** 0.06
36644 H 29.62528955853665 101.39296892321917 66.01479428197365 H 0.0 **** 0.06
36645 H 28.768349526980984 100.9937182521546 64.50602415008217 H 0.0 **** 0.06
36646 C 22.68046228437405 118.16290762168688 14.663960291178597 C 0.0 **** -0.24
36647 H 23.22335675100883 117.26591338765519 14.963003013733896 H 0.0 **** 0.06
36648 H 23.361864922138373 118.84690865052562 14.156849180259911 H 0.0 **** 0.06
36649 H 22.268797885762428 118.64933892708018 15.547670941973323 H 0.0 **** 0.06
36650 H 21.870275674034065 117.88934305104436 13.988286825562966 H 0.0 **** 0.06
36651 C 118.13086852053009 104.16697137420354 9.904992361509045 C 0.0 **** -0.24
36652 H 118.30649120718043 105.1971062338072 9.594126723734206 H 0.0 **** 0.06
36653 H 118.68620371578042 103.96549546373149 10.821080159557653 H 0.0 **** 0.06
36654 H 118.4642663976296 103.48929867369318 9.11942180364521 H 0.0 **** 0.06
36655 H 117.06613491000233 104.01928025215997 10.085337125739585 H 0.0 **** 0.06
36656 C 101.85923146146743 39.40444929643539 17.649657960177507 C 0.0 **** -0.24
36657 H 101.99373346043839 40.429000710571046 17.303677981096712 H 0.0 **** 0.06
36658 H 100.95710313760028 38.9856692850048 17.203986171866717 H 0.0 **** 0.06
36659 H 101.76551451805204 39.39807161831803 18.736197008896 H 0.0 **** 0.06
36660 H 102.72209739152939 38.80622224261964 17.356294073695608 H 0.0 **** 0.06
36661 C 93.2378689757985 116.12568757899066 99.54468736632992 C 0.0 **** -0.24
36662 H 93.1428856044412 115.8738320674372 100.59989843625627 H 0.0 **** 0.06
36663 H 92.5430311354416 115.51977435656613 98.96251114210244 H 0.0 **** 0.06
36664 H 94.25749379579534 115.92844320640202 99.21433084959065 H 0.0 **** 0.06
36665 H 93.00828103135981 117.18139580024132 99.40043726119092 H 0.0 **** 0.06
36666 C 54.41523779868359 96.08770638688034 109.32835575844427 C 0.0 **** -0.24
36667 H 55.292462980626254 95.90124597375501 109.94833325528012 H 0.0 **** 0.06
36668 H 54.19764672123304 97.15657310956067 109.3207580319676 H 0.0 **** 0.06
36669 H 53.56209056753124 95.5456382826074 109.73425407681492 H 0.0 **** 0.06
36670 H 54.61053560530769 95.74968515206575 108.31074631932631 H 0.0 **** 0.06
36671 C 66.81212208153897 25.6578940161842 85.9929692604664 C 0.0 **** -0.24
36672 H 67.10064850358407 24.7029970167099 86.43245964798865 H 0.0 **** 0.06
36673 H 66.66944736019494 26.392963412530122 86.78394863565012 H 0.0 **** 0.06
36674 H 65.88153367478827 25.534633551281814 85.43753543230508 H 0.0 **** 0.06
36675 H 67.59643817977701 25.99755116553422 85.31650059918894 H 0.0 **** 0.06
36676 C 40.11562155602069 112.73906611576113 109.43765418437165 C 0.0 **** -0.24
36677 H 40.739531590664235 113.5989218278588 109.1931608117539 H 0.0 **** 0.06
36678 H 40.35607564971119 112.38919823366548 110.4417960508238 H 0.0 **** 0.06
36679 H 40.300303152087025 111.94019008666272 108.71931068672566 H 0.0 **** 0.06
36680 H 39.0656065153259 113.0292774160885 109.39579240750012 H 0.0 **** 0.06
36681 C 39.310106312059105 29.75017508052393 62.373324384337515 C 0.0 **** -0.24
36682 H 39.02677603391007 29.089096095433966 63.19187740826322 H 0.0 **** 0.06
36683 H 39.92181046724485 30.565323944227444 62.760869180426845 H 0.0 **** 0.06
36684 H 38.41317173397326 30.158004178379414 61.90905802034194 H 0.0 **** 0.06
36685 H 39.880253343193885 29.187720533722832 61.63296778127934 H 0.0 **** 0.06
36686 C 10.894381833102567 47.9746277876375 67.17890015277325 C 0.0 **** -0.24
36687 H 10.08355464476988 47.68544454061137 66.51080446386914 H 0.0 **** 0.06
36688 H 10.501155526892987 48.12500880244724 68.18395843447348 H 0.0 **** 0.06
36689 H 11.345358010956769 48.90121456571495 66.8222237435696 H 0.0 **** 0.06
36690 H 11.648668062002038 47.18748251583699 67.1971544849664 H 0.0 **** 0.06
36691 C 1.3563566697275178 115.95563110615959 84.38152950576432 C 0.0 **** -0.24
36692 H 1.3645324606567897 116.36213489810967 85.39248120979695 H 0.0 **** 0.06
36693 H 0.3962004612553187 116.16774980212506 83.91170266979108 H 0.0 **** 0.06
36694 H 1.5113695857190805 114.87776477572828 84.4220103828211 H 0.0 **** 0.06
36695 H 2.156171883280649 116.41579044023283 83.800153844525 H 0.0 **** 0.06
36696 C 45.876899396135926 107.09741138029048 94.38954242137504 C 0.0 **** -0.24
36697 H 44.98474110393255 106.8422765774539 94.9608972561233 H 0.0 **** 0.06
36698 H 45.645357995675 107.90526521829995 93.69550761314696 H 0.0 **** 0.06
36699 H 46.21222396934482 106.22343719140238 93.83095122165338 H 0.0 **** 0.06
36700 H 46.665215751372 107.41707149617628 95.07014085631891 H 0.0 **** 0.06
36701 C 69.27379273000847 83.52373479511414 73.18005409385626 C 0.0 **** -0.24
36702 H 70.0972029765642 84.01533365918507 73.69937746728681 H 0.0 **** 0.06
36703 H 68.36432536026902 83.6139445522671 73.77522965980563 H 0.0 **** 0.06
36704 H 69.51243000664971 82.46966223697885 73.03770989159409 H 0.0 **** 0.06
36705 H 69.12310528011545 83.99662035828823 72.21055112938154 H 0.0 **** 0.06
36706 C 57.48233083546671 39.84290324742261 3.9027846587011936 C 0.0 **** -0.24
36707 H 57.981238358049325 39.091143639454515 3.2908464515391955 H 0.0 **** 0.06
36708 H 57.641619480021916 40.82975236256891 3.4672360732348437 H 0.0 **** 0.06
36709 H 57.89444778671813 39.820385824174934 4.912025562013383 H 0.0 **** 0.06
36710 H 56.41446274941032 39.63036729038146 3.9408861074113304 H 0.0 **** 0.06
36711 C 51.464219951317034 62.78435515400986 56.95838715648253 C 0.0 **** -0.24
36712 H 51.985176484025146 61.8469600317344 56.76340447463372 H 0.0 **** 0.06
36713 H 50.59398713829046 62.85790204022362 56.305914708535624 H 0.0 **** 0.06
36714 H 52.135869210600816 63.6201055494833 56.763082019051524 H 0.0 **** 0.06
36715 H 51.142569031800974 62.811273408895545 57.99912565243824 H 0.0 **** 0.06
36716 C 29.83487440446015 101.81562111966258 18.08043033212749 C 0.0 **** -0.24
36717 H 29.782933996347282 101.60165313486061 19.1481299555208 H 0.0 **** 0.06
36718 H 30.17045066782029 100.92608362271207 17.546723278539105 H 0.0 **** 0.06
36719 H 30.538579700854342 102.6304501033377 17.907959468681526 H 0.0 **** 0.06
36720 H 28.848449780667977 102.1051730495517 17.719536091273994 H 0.0 **** 0.06
36721 C 111.23625519152968 37.39199442990599 81.93880712596265 C 0.0 **** -0.24
36722 H 112.10681658926845 37.40714172077031 81.28206360019541 H 0.0 **** 0.06
36723 H 110.50953965915102 36.67381930435164 81.56043755544553 H 0.0 **** 0.06
36724 H 110.78672466030254 38.384076045163965 81.96826701176747 H 0.0 **** 0.06
36725 H 111.5451766458001 37.10266511713837 82.94379106296961 H 0.0 **** 0.06
36726 C 50.71884516975811 73.44969618941866 59.73613183771463 C 0.0 **** -0.24
36727 H 51.01354870225336 74.29770700284212 59.11777670421562 H 0.0 **** 0.06
36728 H 49.7537887231872 73.65709869656487 60.19928825703037 H 0.0 **** 0.06
36729 H 51.46701565727582 73.28992105104695 60.51257655498765 H 0.0 **** 0.06
36730 H 50.64142590028413 72.55714154549534 59.11604073280184 H 0.0 **** 0.06
36731 C 52.73462289445922 33.64596161688314 94.75193882548294 C 0.0 **** -0.24
36732 H 52.705046873532666 34.02325817285106 93.72930732304815 H 0.0 **** 0.06
36733 H 52.422133618194806 32.601254898484626 94.76198651444122 H 0.0 **** 0.06
36734 H 52.06099798461139 34.23396563881079 95.37495912622495 H 0.0 **** 0.06
36735 H 53.75033974624563 33.726212116783415 95.13845489127823 H 0.0 **** 0.06
36736 C 60.13579352769443 74.6670697036941 38.87942885143677 C 0.0 **** -0.24
36737 H 59.049842081138365 74.6002271029156 38.805515678054064 H 0.0 **** 0.06
36738 H 60.53180341564706 75.1365864531108 37.97858657892544 H 0.0 **** 0.06
36739 H 60.55428093634339 73.66664331353354 38.98253951472417 H 0.0 **** 0.06
36740 H 60.40449306838326 75.26554947774446 39.749701260261084 H 0.0 **** 0.06
36741 C 74.87937563493557 96.02491809599306 61.60310564558906 C 0.0 **** -0.24
36742 H 74.8548799734283 95.5748720835702 62.595836803022415 H 0.0 **** 0.06
36743 H 73.91394984103391 96.48269362111085 61.387807791749005 H 0.0 **** 0.06
36744 H 75.0912419050346 95.25509783637011 60.86041925233294 H 0.0 **** 0.06
36745 H 75.65918815312511 96.78654301048451 61.569660685359544 H 0.0 **** 0.06
36746 C 76.61536257267238 50.26263835072527 96.89217253578553 C 0.0 **** -0.24
36747 H 76.91693214305462 51.006569208460945 96.15505842003651 H 0.0 **** 0.06
36748 H 76.80381331883277 50.647223928615205 97.89460249817489 H 0.0 **** 0.06
36749 H 77.18695523674467 49.34738867491109 96.73933142056117 H 0.0 **** 0.06
36750 H 75.55226623493672 50.04952654062788 96.77803169061883 H 0.0 **** 0.06
36751 C 103.54038323039669 95.84992234702798 110.24799489444521 C 0.0 **** -0.24
36752 H 103.78482501315355 96.00085651546294 109.19680384251089 H 0.0 **** 0.06
36753 H 102.5899284928733 96.3328036739951 110.4733322839929 H 0.0 **** 0.06
36754 H 104.3247414650215 96.28249592817798 110.8689174443756 H 0.0 **** 0.06
36755 H 103.46272691983262 94.78167436481158 110.45266138400692 H 0.0 **** 0.06
36756 C 32.50678893662186 15.53263505885684 105.05926853709121 C 0.0 **** -0.24
36757 H 33.26500921206707 15.9473428227233 104.39414665206476 H 0.0 **** 0.06
36758 H 32.09064119661733 16.329413989166056 105.67629365989472 H 0.0 **** 0.06
36759 H 32.9606398024269 14.776230595445668 105.69921480251207 H 0.0 **** 0.06
36760 H 31.712652575236064 15.078742911055883 104.46679414680688 H 0.0 **** 0.06
36761 C 111.93312306248095 88.31792695369415 39.12842910695716 C 0.0 **** -0.24
36762 H 112.4126326474088 88.12557941151803 38.16889613588785 H 0.0 **** 0.06
36763 H 111.51486038912932 89.3248581091745 39.1300408093133 H 0.0 **** 0.06
36764 H 112.67037140019772 88.22937978494659 39.92706414284987 H 0.0 **** 0.06
36765 H 111.13536176833372 87.59307965586848 39.28749772311281 H 0.0 **** 0.06
36766 C 0.3737890078017472 116.78691988890591 22.228953861196697 C 0.0 **** -0.24
36767 H 0.5172563745455534 116.84728744377117 23.30818900394759 H 0.0 **** 0.06
36768 H 1.1840143780122219 117.31416656138717 21.724830469690712 H 0.0 **** 0.06
36769 H -0.5784798867858285 117.24473810935336 21.963292547716875 H 0.0 **** 0.06
36770 H 0.3740285674973052 115.741454260559 21.920997506904193 H 0.0 **** 0.06
36771 C 38.70802944317393 34.52895675291438 72.24226715870114 C 0.0 **** -0.24
36772 H 39.31039317399831 35.393963548199864 72.5221525387301 H 0.0 **** 0.06
36773 H 39.20400367949273 33.985437478101716 71.43819072286081 H 0.0 **** 0.06
36774 H 37.72787160521605 34.864094058207 71.9050089631586 H 0.0 **** 0.06
36775 H 38.59140862370822 33.8740247137259 73.10564087201348 H 0.0 **** 0.06
36776 C 94.01252529710752 11.918964350564178 25.651431925019004 C 0.0 **** -0.24
36777 H 94.81786716769861 12.545532411432617 25.26639610501403 H 0.0 **** 0.06
36778 H 94.23025713601982 10.873104588661782 25.431248210483616 H 0.0 **** 0.06
36779 H 93.07316326293451 12.202796984233501 25.176533412948537 H 0.0 **** 0.06
36780 H 93.93121076611072 12.054605097045506 26.729264947366303 H 0.0 **** 0.06
36781 C 19.620490491467933 25.392761635358823 26.399049158376783 C 0.0 **** -0.24
36782 H 18.833680811156114 24.652363386822657 26.54223962541755 H 0.0 **** 0.06
36783 H 20.58702735149606 24.945773840488386 26.632775513218263 H 0.0 **** 0.06
36784 H 19.443986937614994 26.242912890061007 27.056883350372857 H 0.0 **** 0.06
36785 H 19.617558767134426 25.728479875045366 25.361538532540948 H 0.0 **** 0.06
36786 C 0.145890554839184 30.3300512019714 56.31190816649441 C 0.0 **** -0.24
36787 H 0.1481245724575615 31.106781960979845 57.076321588358205 H 0.0 **** 0.06
36788 H 0.7559910455260024 29.489744426595394 56.64533366971741 H 0.0 **** 0.06
36789 H 0.5549543676020221 30.731989175728245 55.38546109395225 H 0.0 **** 0.06
36790 H -0.876754636592409 29.99211674004607 56.1410288361839 H 0.0 **** 0.06
36791 C 58.741448413379715 109.53127373713068 65.12940085401269 C 0.0 **** -0.24
36792 H 59.64003016417695 109.63269706463052 64.52080844849309 H 0.0 **** 0.06
36793 H 58.53568542532702 110.47500746276057 65.63429371844407 H 0.0 **** 0.06
36794 H 58.892600053777784 108.74700173323419 65.8721587307885 H 0.0 **** 0.06
36795 H 57.89784164087422 109.2684666936409 64.49075958555022 H 0.0 **** 0.06
36796 C 90.40586470459823 41.510386066312336 108.55112391457772 C 0.0 **** -0.24
36797 H 91.05768652021396 42.26359276433173 108.10901925118984 H 0.0 **** 0.06
36798 H 90.1462834309344 40.767130111237435 107.7965221764509 H 0.0 **** 0.06
36799 H 89.49793847263143 41.98685559060287 108.91993047112393 H 0.0 **** 0.06
36800 H 90.92249104905062 41.02314433361377 109.37782353481873 H 0.0 **** 0.06
36801 C 82.16338480350575 29.11232693772422 69.24900690754498 C 0.0 **** -0.24
36802 H 83.12745411943476 28.741679365366608 69.59916455424064 H 0.0 **** 0.06
36803 H 81.63815443641215 29.593030945465593 70.07403554894765 H 0.0 **** 0.06
36804 H 81.56846270033373 28.279082445655675 68.87503514963944 H 0.0 **** 0.06
36805 H 82.32135365972954 29.83439970995679 68.44824021859043 H 0.0 **** 0.06
36806 C 82.81622825432896 17.435404131411346 11.930872490020334 C 0.0 **** -0.24
36807 H 81.81372864120112 17.080074019697108 11.69341600948863 H 0.0 **** 0.06
36808 H 82.76556157100617 18.47545578832805 12.253979346573118 H 0.0 **** 0.06
36809 H 83.44751123020455 17.359307753473274 11.045323090766203 H 0.0 **** 0.06
36810 H 83.23812183506777 16.825833586176444 12.730445608696158 H 0.0 **** 0.06
36811 C 99.42231784811787 19.1969875857786 46.611390581492174 C 0.0 **** -0.24
36812 H 100.26617042412425 19.17256880194057 45.92243406776652 H 0.0 **** 0.06
36813 H 98.74024333007668 19.997439301880064 46.3221310784657 H 0.0 **** 0.06
36814 H 99.78507534574334 19.37654028862255 47.62391685227874 H 0.0 **** 0.06
36815 H 98.89711086128267 18.241997467976518 46.577521459843354 H 0.0 **** 0.06
36816 C 9.313260464766898 35.61422893869796 97.47609199612575 C 0.0 **** -0.24
36817 H 8.787435486881193 35.16342842701604 96.63352944672513 H 0.0 **** 0.06
36818 H 9.904582866578053 36.459782705506996 97.12340478766919 H 0.0 **** 0.06
36819 H 9.97166356198936 34.87415970603499 97.930665913072 H 0.0 **** 0.06
36820 H 8.589263303229416 35.95897987174243 98.21438629621014 H 0.0 **** 0.06
36821 C 55.0501865182635 100.99272286836361 3.1265051276376425 C 0.0 **** -0.24
36822 H 54.868920375536135 100.23790950610149 2.361273824443387 H 0.0 **** 0.06
36823 H 54.792687391069364 101.97653046420024 2.734295518158362 H 0.0 **** 0.06
36824 H 56.1022205269787 100.97683761833986 3.4097781830182754 H 0.0 **** 0.06
36825 H 54.43505292682991 100.77708570937625 4.001035254409302 H 0.0 **** 0.06
36826 C 0.675779903616899 102.57349265578534 72.02000393644849 C 0.0 **** -0.24
36827 H 0.9114981913565714 101.68505580130082 71.43554494013449 H 0.0 **** 0.06
36828 H 1.5903681361433684 103.13498234730179 72.21190309669217 H 0.0 **** 0.06
36829 H 0.2265496490545047 102.2759590756202 72.96795782031904 H 0.0 **** 0.06
36830 H -0.02567452977331186 103.19799034183836 71.46630011875482 H 0.0 **** 0.06
36831 C 85.73640362898064 40.89891427146554 90.13864688058828 C 0.0 **** -0.24
36832 H 84.82572697238669 40.89917215485829 89.54020933814448 H 0.0 **** 0.06
36833 H 86.01970438782439 39.87225954034258 90.36917729630133 H 0.0 **** 0.06
36834 H 85.56073180501534 41.444569694322354 91.06648319141755 H 0.0 **** 0.06
36835 H 86.53846340304625 41.3811191814724 89.58008972546037 H 0.0 **** 0.06
36836 C 72.16494440586109 38.96970964014761 99.37620712150914 C 0.0 **** -0.24
36837 H 72.59517915713917 37.971029989758506 99.44426242911715 H 0.0 **** 0.06
36838 H 71.68363960258176 39.2230716852678 100.32185560085301 H 0.0 **** 0.06
36839 H 71.42621234479026 38.99354763214902 98.5748225164636 H 0.0 **** 0.06
36840 H 72.95351268794764 39.69181612929492 99.16417915231992 H 0.0 **** 0.06
36841 C 106.21828093754232 3.790945926664042 40.539877866717646 C 0.0 **** -0.24
36842 H 107.28855041462782 3.958518260392431 40.41910398287638 H 0.0 **** 0.06
36843 H 105.99702236744821 3.6042714814445986 41.59099389161952 H 0.0 **** 0.06
36844 H 105.91667222402921 2.9284434740938927 39.94563526759097 H 0.0 **** 0.06
36845 H 105.6729838025343 4.672927012035506 40.20443197096546 H 0.0 **** 0.06
36846 C 74.110084105953 56.579086373698146 47.73135439497187 C 0.0 **** -0.24
36847 H 73.54369447642264 55.65498742904617 47.850801250161 H 0.0 **** 0.06
36848 H 75.17493848556649 56.35032606698019 47.689277839966536 H 0.0 **** 0.06
36849 H 73.91277120638566 57.23856695846314 48.57585630997062 H 0.0 **** 0.06
36850 H 73.80692070889756 57.07271101030767 46.80705447205165 H 0.0 **** 0.06
36851 C 106.70801081014406 40.431442590734434 95.75176661586977 C 0.0 **** -0.24
36852 H 107.15468042741912 41.41226912945996 95.59401990575742 H 0.0 **** 0.06
36853 H 106.81335445284162 39.83460200500639 94.84517317486248 H 0.0 **** 0.06
36854 H 105.6513504191899 40.54815177304323 95.9903421673194 H 0.0 **** 0.06
36855 H 107.21348404537392 39.9305801525515 96.57806937915484 H 0.0 **** 0.06
36856 C 73.09765586387098 30.784267998499928 57.844513758346324 C 0.0 **** -0.24
36857 H 72.15357100625562 30.24828983382315 57.74542907501905 H 0.0 **** 0.06
36858 H 72.95392228262085 31.65552197777376 58.48380222983104 H 0.0 **** 0.06
36859 H 73.4372922774001 31.106737673564652 56.86074807089199 H 0.0 **** 0.06
36860 H 73.84321619751171 30.125446629654192 58.289060413278065 H 0.0 **** 0.06
36861 C 64.65699006722099 94.18819729480023 110.46046831859024 C 0.0 **** -0.24
36862 H 64.29394997539214 95.1691529668989 110.7661992421096 H 0.0 **** 0.06
36863 H 64.7346659022385 93.54072837974337 111.33340760016347 H 0.0 **** 0.06
36864 H 65.63693201061704 94.29278374153199 109.99631969217569 H 0.0 **** 0.06
36865 H 63.9606207552828 93.75118940125662 109.74466006044264 H 0.0 **** 0.06
36866 C 71.03716685944732 103.58019157814815 5.88728611342637 C 0.0 **** -0.24
36867 H 71.21992719120189 103.02172796438578 4.968606250804527 H 0.0 **** 0.06
36868 H 69.97204331517653 103.55837894697507 6.118758875569455 H 0.0 **** 0.06
36869 H 71.35965669403043 104.61264549388429 5.754535379685308 H 0.0 **** 0.06
36870 H 71.59656024592292 103.12630913865982 6.704624032093108 H 0.0 **** 0.06
36871 C 111.25001687038196 71.77219007013585 51.98679979661324 C 0.0 **** -0.24
36872 H 110.91533617411721 70.86512015940713 51.48269006122155 H 0.0 **** 0.06
36873 H 112.1284616147314 71.54738454058264 52.59268175219131 H 0.0 **** 0.06
36874 H 110.4523735445078 72.14630737035543 52.627550029503595 H 0.0 **** 0.06
36875 H 111.504511775369 72.52679768708961 51.24297507244603 H 0.0 **** 0.06
36876 C 3.97900903165241 76.3735187621852 11.523571754673924 C 0.0 **** -0.24
36877 H 3.022298548601256 75.99376665187691 11.881465490044079 H 0.0 **** 0.06
36878 H 4.789876808006426 75.87166366264091 12.051334452877143 H 0.0 **** 0.06
36879 H 4.0348231708310465 77.44639825423133 11.708160366939808 H 0.0 **** 0.06
36880 H 4.068921325809782 76.18348855687668 10.45399292399081 H 0.0 **** 0.06
36881 C 85.99359508360465 113.09812017263206 16.286517913732823 C 0.0 **** -0.24
36882 H 85.5663060865628 112.09973335012329 16.18680079014598 H 0.0 **** 0.06
36883 H 86.91375568733525 113.1592976999 15.704429938618205 H 0.0 **** 0.06
36884 H 86.21413633860311 113.29465968972676 17.335904574745086 H 0.0 **** 0.06
36885 H 85.2807696971739 113.83692740133783 15.920414909420856 H 0.0 **** 0.06
36886 C 34.95779475418855 90.9325725165387 43.82560849428464 C 0.0 **** -0.24
36887 H 35.1204302169379 89.9812897049197 43.31776466237865 H 0.0 **** 0.06
36888 H 35.52313613764417 90.94714660355729 44.758042059149275 H 0.0 **** 0.06
36889 H 33.89633231745561 91.0525575149797 44.04138763795072 H 0.0 **** 0.06
36890 H 35.29338247030294 91.74760710963804 43.18438617405164 H 0.0 **** 0.06
36891 C 35.77881988051902 117.9059152654234 13.790204193556292 C 0.0 **** -0.24
36892 H 34.80528711336879 118.39646881040173 13.815299906984649 H 0.0 **** 0.06
36893 H 35.66972718394311 116.86584182004356 14.0982327739722 H 0.0 **** 0.06
36894 H 36.460729432455 118.41728258977687 14.470003739273494 H 0.0 **** 0.06
36895 H 36.17908400461599 117.94581649542232 12.77642109182662 H 0.0 **** 0.06
36896 C 103.48668272962448 95.51066509821698 51.743019769704006 C 0.0 **** -0.24
36897 H 103.12886864275333 94.51091532661778 51.98976470048211 H 0.0 **** 0.06
36898 H 102.99721545011221 96.24096402607336 52.38679673745992 H 0.0 **** 0.06
36899 H 103.255487869501 95.73098776121333 50.700573385323395 H 0.0 **** 0.06
36900 H 104.5650159698215 95.55747427062573 51.8941683002713 H 0.0 **** 0.06
36901 C 69.31420165884671 80.06887099065534 69.7538981562403 C 0.0 **** -0.24
36902 H 69.36637807228504 80.14515379120508 70.8404395427747 H 0.0 **** 0.06
36903 H 70.2036470712302 79.56059855378669 69.3822134399582 H 0.0 **** 0.06
36904 H 69.2595021315025 81.06816616127969 69.32284403990388 H 0.0 **** 0.06
36905 H 68.42649897941189 79.50315628089714 69.47230031348207 H 0.0 **** 0.06
36906 C 112.24858105428824 74.89615732851126 76.35453122207872 C 0.0 **** -0.24
36907 H 111.76289510513564 73.9704891284689 76.66129666757263 H 0.0 **** 0.06
36908 H 111.80662601591908 75.73382499003435 76.89445457503962 H 0.0 **** 0.06
36909 H 112.1117798113964 75.04030286010632 75.28309152793986 H 0.0 **** 0.06
36910 H 113.31305260547478 74.8395229285033 76.58146384046262 H 0.0 **** 0.06
36911 C 21.750812410524077 114.78653051320029 54.885770912611065 C 0.0 **** -0.24
36912 H 22.420220826053992 115.28379828936662 54.18321504160468 H 0.0 **** 0.06
36913 H 22.153090505728187 114.87363512019638 55.894874805944085 H 0.0 **** 0.06
36914 H 21.662783050886276 113.73318346283948 54.618669015196645 H 0.0 **** 0.06
36915 H 20.768006310304315 115.25486850586012 54.84351927794813 H 0.0 **** 0.06
36916 C 53.283434011039944 68.29551522143308 32.85737938204673 C 0.0 **** -0.24
36917 H 52.86554109462083 67.65383573460326 33.632816995069646 H 0.0 **** 0.06
36918 H 54.334371985309524 68.04474131750396 32.70653671494503 H 0.0 **** 0.06
36919 H 53.199084228960494 69.3384645950945 33.16330961577256 H 0.0 **** 0.06
36920 H 52.73712922255704 68.14452658858502 31.92664631322785 H 0.0 **** 0.06
36921 C 114.4037204268968 30.183654538754666 89.49227692310023 C 0.0 **** -0.24
36922 H 115.25443008387097 29.50973408367338 89.3896324538066 H 0.0 **** 0.06
36923 H 114.58590315322235 30.874102104610955 90.31691944569147 H 0.0 **** 0.06
36924 H 113.50326518901642 29.603982580046136 89.69477220433507 H 0.0 **** 0.06
36925 H 114.27339594566261 30.747185569841633 88.56840632880602 H 0.0 **** 0.06
36926 C 71.80392356930602 80.03543830239082 30.730638150331707 C 0.0 **** -0.24
36927 H 72.6560484345907 80.69120275727639 30.549188930412377 H 0.0 **** 0.06
36928 H 71.99310975460912 79.43105983593378 31.6186747023929 H 0.0 **** 0.06
36929 H 71.65869889983321 79.38226030707867 29.87013139442621 H 0.0 **** 0.06
36930 H 70.9083053178768 80.63800807742948 30.884138062649633 H 0.0 **** 0.06
36931 C 83.10557399050035 62.918783096961484 80.92193543401723 C 0.0 **** -0.24
36932 H 82.23210931283475 62.61757249557433 81.50073007206393 H 0.0 **** 0.06
36933 H 83.30089815405142 63.97910833615182 81.0847527462289 H 0.0 **** 0.06
36934 H 82.918135623795 62.74221759344065 79.86255727705014 H 0.0 **** 0.06
36935 H 83.96997898236106 62.33700765064753 81.23985496638065 H 0.0 **** 0.06
36936 C 71.07006261299176 9.619316703713821 19.071721999219193 C 0.0 **** -0.24
36937 H 71.59178036640941 9.589756503839226 20.028497506761287 H 0.0 **** 0.06
36938 H 70.05771112348143 9.236512812659782 19.196786580241856 H 0.0 **** 0.06
36939 H 71.60452452517919 9.003337716025783 18.348095744710992 H 0.0 **** 0.06
36940 H 71.0297986327152 10.64844972477266 18.712687605033747 H 0.0 **** 0.06
36941 C 18.651244948415865 14.265346858658546 59.89154910785015 C 0.0 **** -0.24
36942 H 19.68220721405629 14.34160141839834 60.23602780806101 H 0.0 **** 0.06
36943 H 18.226361799021944 15.264819215254533 59.79189990815769 H 0.0 **** 0.06
36944 H 18.068151440140923 13.693465906440764 60.613868806234336 H 0.0 **** 0.06
36945 H 18.62761007679825 13.76167199619448 58.925141015889835 H 0.0 **** 0.06
36946 C 37.97019246906585 54.391083390591405 59.58509885599417 C 0.0 **** -0.24
36947 H 37.98261443223153 55.041244991613894 58.71041482910541 H 0.0 **** 0.06
36948 H 38.35111039928174 53.40708068999754 59.31084566543584 H 0.0 **** 0.06
36949 H 36.9473422304537 54.295063877370865 59.9511935044278 H 0.0 **** 0.06
36950 H 38.59733023373914 54.81988947040543 60.36613604214511 H 0.0 **** 0.06
36951 C 46.637643575556126 57.832203640351274 105.32004325429892 C 0.0 **** -0.24
36952 H 46.394245181926095 57.032381104356226 104.62207148822645 H 0.0 **** 0.06
36953 H 47.59158876768407 57.61659994210601 105.80210884182983 H 0.0 **** 0.06
36954 H 45.85636565651967 57.90442086455622 106.07733323396778 H 0.0 **** 0.06
36955 H 46.70834571912641 58.77726752990851 104.78101722952263 H 0.0 **** 0.06
36956 C 82.98285974024691 36.036123487683 109.6431277609953 C 0.0 **** -0.24
36957 H 82.09992472610386 35.398015149527026 109.61259819235903 H 0.0 **** 0.06
36958 H 82.93859866855459 36.67590963129976 110.52450181176627 H 0.0 **** 0.06
36959 H 83.01562715095324 36.65413118041792 108.7463193594173 H 0.0 **** 0.06
36960 H 83.87810107073224 35.415284110862856 109.6891826337772 H 0.0 **** 0.06
36961 C 52.006530692937346 98.12143943467012 72.01869910727794 C 0.0 **** -0.24
36962 H 52.563265478359995 98.50460519066428 71.16392141040365 H 0.0 **** 0.06
36963 H 51.27879626996062 97.38413496334417 71.67670288382567 H 0.0 **** 0.06
36964 H 51.48696077731691 98.94284091294114 72.51129553111284 H 0.0 **** 0.06
36965 H 52.69574160118094 97.65381395028496 72.72087089480388 H 0.0 **** 0.06
36966 C 5.405501203677716 100.20256518573649 49.36358546399185 C 0.0 **** -0.24
36967 H 5.679285454187948 100.27354635748122 48.31137285679915 H 0.0 **** 0.06
36968 H 5.917610115986008 100.9830830711143 49.92636683067582 H 0.0 **** 0.06
36969 H 5.696466074648242 99.22530345693528 49.749489023136334 H 0.0 **** 0.06
36970 H 4.327040132147317 100.32678664375149 49.466878149110414 H 0.0 **** 0.06
36971 C 58.8978908360246 3.580106558950547 117.94399313233608 C 0.0 **** -0.24
36972 H 58.80955256037305 4.35912961569133 118.70079030168245 H 0.0 **** 0.06
36973 H 59.04028165817675 4.039450095262467 116.96487105265507 H 0.0 **** 0.06
36974 H 57.98942180340259 2.978699089319676 117.93442324855158 H 0.0 **** 0.06
36975 H 59.752477878344564 2.9443150938756446 118.17461999103007 H 0.0 **** 0.06
36976 C 87.88002750430215 114.88290333942717 118.73156659042489 C 0.0 **** -0.24
36977 H 87.6387108604427 113.99838974635648 119.32132973678324 H 0.0 **** 0.06
36978 H 88.86604826664217 114.7622034851205 118.2823292356693 H 0.0 **** 0.06
36979 H 87.87932190676256 115.76071751076054 119.37746002632169 H 0.0 **** 0.06
36980 H 87.1346542561837 115.00841900763947 117.94589736164136 H 0.0 **** 0.06
36981 C 102.52257901603727 108.40654973748963 62.360071464456816 C 0.0 **** -0.24
36982 H 101.53047179403154 108.01227411649603 62.13860678684143 H 0.0 **** 0.06
36983 H 102.44711395850717 109.46938927581928 62.59045967507729 H 0.0 **** 0.06
36984 H 103.17016527886796 108.26581705076086 61.49522300620483 H 0.0 **** 0.06
36985 H 102.9404012432486 107.87696213303136 63.216479747115464 H 0.0 **** 0.06
36986 C 3.4902305378160765 99.3180791161762 95.58102552954588 C 0.0 **** -0.24
36987 H 3.2647174164360813 99.21869103101898 96.64243985245196 H 0.0 **** 0.06
36988 H 4.409662243541797 99.8909456110249 95.45635017619324 H 0.0 **** 0.06
36989 H 2.669758551818827 99.83531593768657 95.08301910793244 H 0.0 **** 0.06
36990 H 3.6155891153102413 98.32848266065955 95.14172649076394 H 0.0 **** 0.06
36991 C 84.4603677511702 52.29136458581306 30.3075202278171 C 0.0 **** -0.24
36992 H 85.07031777981828 52.036891147358105 31.17412497229875 H 0.0 **** 0.06
36993 H 83.43911141733528 51.94773599932057 30.46943815513375 H 0.0 **** 0.06
36994 H 84.87016458106262 51.808983626889585 29.420308461435162 H 0.0 **** 0.06
36995 H 84.46223600154968 53.37234492757 30.167829227103695 H 0.0 **** 0.06
36996 C 111.31380610052229 66.98116450303863 2.374156192602811 C 0.0 **** -0.24
36997 H 110.4578285441642 67.2572356815329 2.9903832032211426 H 0.0 **** 0.06
36998 H 111.71934845740385 66.03026719984291 2.7217153454228082 H 0.0 **** 0.06
36999 H 112.07895177918485 67.75261152108291 2.448755410331188 H 0.0 **** 0.06
37000 H 110.99578353751042 66.88210328276054 1.336046312200864 H 0.0 **** 0.06
37001 C 1.6058734944169135 47.20035742138424 87.99661472052958 C 0.0 **** -0.24
37002 H 2.0842740095722228 46.59192589586984 88.76493800515112 H 0.0 **** 0.06
37003 H 2.0785522625432087 48.18279810748776 87.96547412863347 H 0.0 **** 0.06
37004 H 0.5476468185670083 47.31291257435407 88.23003096774585 H 0.0 **** 0.06
37005 H 1.715161611049794 46.713487748186864 87.027166609559 H 0.0 **** 0.06
37006 C 17.003479680683128 47.25614728817146 5.442992110121537 C 0.0 **** -0.24
37007 H 16.754815790243725 48.164952505606635 4.895405690612819 H 0.0 **** 0.06
37008 H 17.586245221106793 47.51348129084605 6.328159991791523 H 0.0 **** 0.06
37009 H 17.58823232788673 46.5946013339225 4.803266462918998 H 0.0 **** 0.06
37010 H 16.08560998424811 46.751598564948736 5.745305516525747 H 0.0 **** 0.06
37011 C 9.693261923221286 62.111230445299945 31.73783545975988 C 0.0 **** -0.24
37012 H 10.45431717402522 62.03203939426178 30.961236283868175 H 0.0 **** 0.06
37013 H 9.925025893834345 62.95407850187947 32.388475257074504 H 0.0 **** 0.06
37014 H 9.678281166010123 61.19231072278841 32.32462480859414 H 0.0 **** 0.06
37015 H 8.717845534168873 62.264755482887445 31.27734394088742 H 0.0 **** 0.06
37016 C 84.01689127189908 63.923966534677504 10.377689261071993 C 0.0 **** -0.24
37017 H 84.80269048194569 63.418026916186506 9.816545530000838 H 0.0 **** 0.06
37018 H 84.2134452915488 63.8258629280067 11.445824941378703 H 0.0 **** 0.06
37019 H 83.05349014391291 63.471326713007386 10.142497761354548 H 0.0 **** 0.06
37020 H 83.99891862001576 64.9791351753563 10.107210758917546 H 0.0 **** 0.06
37021 C 115.62924056263064 105.91951490213387 14.099145312995589 C 0.0 **** -0.24
37022 H 114.72715868084234 105.35202821883755 13.872428179041258 H 0.0 **** 0.06
37023 H 115.72385928706157 106.03640893084227 15.178894206975304 H 0.0 **** 0.06
37024 H 115.5666775575428 106.90298333853019 13.630962224815665 H 0.0 **** 0.06
37025 H 116.49891392892786 105.38816526466474 13.712700799326779 H 0.0 **** 0.06
37026 C 88.91547554471396 46.231135515978565 68.14051809317885 C 0.0 **** -0.24
37027 H 88.67377260957056 45.19009892720056 68.35383020353942 H 0.0 **** 0.06
37028 H 89.86395908737941 46.4883996568682 68.61372819011473 H 0.0 **** 0.06
37029 H 88.12710715007336 46.8744758372951 68.53289947527344 H 0.0 **** 0.06
37030 H 88.99620730685189 46.37253765220699 67.06218583522883 H 0.0 **** 0.06
37031 C 93.14239321764339 81.4540432575838 75.57417517917071 C 0.0 **** -0.24
37032 H 94.01071673386105 81.48047033464701 74.91578968942125 H 0.0 **** 0.06
37033 H 92.46123280436993 80.6697364467204 75.2455555985234 H 0.0 **** 0.06
37034 H 92.63147481035986 82.41679367819341 75.53985846954248 H 0.0 **** 0.06
37035 H 93.46637758502308 81.25030812039651 76.59468567977626 H 0.0 **** 0.06
37036 C 43.74621548163657 52.390496195079294 108.42489438955951 C 0.0 **** -0.24
37037 H 43.675121470363294 53.10374403971389 107.60426373528335 H 0.0 **** 0.06
37038 H 43.01573693402744 51.593972806818776 108.27781874571826 H 0.0 **** 0.06
37039 H 43.54467727178191 52.89941941092644 109.36747280960157 H 0.0 **** 0.06
37040 H 44.74907662016206 51.963777755995 108.44913273955893 H 0.0 **** 0.06
37041 C 105.3218841005594 20.02113682060242 62.497201418674685 C 0.0 **** -0.24
37042 H 105.91291042268455 19.569297488452733 61.70096487323908 H 0.0 **** 0.06
37043 H 104.32480134379523 19.578847554162895 62.50591081914771 H 0.0 **** 0.06
37044 H 105.24198513944245 21.095066104740315 62.325924820696464 H 0.0 **** 0.06
37045 H 105.80834585523087 19.841978641567074 63.45658035252925 H 0.0 **** 0.06
37046 C 7.941525060939895 93.8637772262808 92.55957646277426 C 0.0 **** -0.24
37047 H 7.3169616185806206 92.98630171893274 92.72598195575273 H 0.0 **** 0.06
37048 H 7.553542089802562 94.42989087009647 91.71215083966729 H 0.0 **** 0.06
37049 H 8.962975629085122 93.54852230589671 92.34985388197708 H 0.0 **** 0.06
37050 H 7.930721953690622 94.49178684409551 93.45099322421862 H 0.0 **** 0.06
37051 C 65.23201553111807 59.17207496624359 66.8315320873823 C 0.0 **** -0.24
37052 H 65.659809149931 58.474540130877095 66.11039587969145 H 0.0 **** 0.06
37053 H 64.4558230606346 59.76342982929177 66.34721074333231 H 0.0 **** 0.06
37054 H 66.01489777765204 59.83364952997841 67.20416747536504 H 0.0 **** 0.06
37055 H 64.80072969381729 58.615205571681564 67.66308878635101 H 0.0 **** 0.06
37056 C 21.20498876429217 10.718899321449129 86.13447021654204 C 0.0 **** -0.24
37057 H 22.014251544868106 10.0312320098856 85.88577144282434 H 0.0 **** 0.06
37058 H 21.057669227772234 10.731091307742275 87.21464423474555 H 0.0 **** 0.06
37059 H 20.28782683910285 10.390343472503162 85.64617359043746 H 0.0 **** 0.06
37060 H 21.46113605848361 11.720171524390878 85.79056614497838 H 0.0 **** 0.06
37061 C 43.72242667219726 46.26153581062567 100.0287074007496 C 0.0 **** -0.24
37062 H 44.77152583749856 46.463097419382926 100.2468918907662 H 0.0 **** 0.06
37063 H 43.12838546610479 46.41569214267535 100.92923414127966 H 0.0 **** 0.06
37064 H 43.6136169278509 45.23004161730128 99.69238049626338 H 0.0 **** 0.06
37065 H 43.377677676382405 46.9368431215056 99.24559327220706 H 0.0 **** 0.06
37066 C 27.291621820131553 23.828389718362246 24.670719351639917 C 0.0 **** -0.24
37067 H 26.823828095202394 24.804610217066 24.800770018693555 H 0.0 **** 0.06
37068 H 28.191537483334436 23.93554012505564 24.064042968527765 H 0.0 **** 0.06
37069 H 26.59498585125914 23.15543716293655 24.17099068313515 H 0.0 **** 0.06
37070 H 27.557397676951254 23.419417063780827 25.645551201875904 H 0.0 **** 0.06
37071 C 96.82891611377119 72.98037472752989 62.86788968075581 C 0.0 **** -0.24
37072 H 96.78571764301151 71.97349750698737 62.451073413931965 H 0.0 **** 0.06
37073 H 97.71705537336004 73.07653496435452 63.49214636843277 H 0.0 **** 0.06
37074 H 95.93903893124357 73.16249133408428 63.46924201269053 H 0.0 **** 0.06
37075 H 96.8742266280469 73.70687016686247 62.05656120032819 H 0.0 **** 0.06
37076 C 49.88983538927614 73.23607912966702 23.768452649651408 C 0.0 **** -0.24
37077 H 50.91906083400718 72.9248863687994 23.58355065011665 H 0.0 **** 0.06
37078 H 49.70352289893649 73.25433413352411 24.84260441901722 H 0.0 **** 0.06
37079 H 49.207246693778856 72.53337755603434 23.291292614446604 H 0.0 **** 0.06
37080 H 49.73290840667271 74.23302357609069 23.355493428729574 H 0.0 **** 0.06
37081 C 66.49239326622259 68.17995216109512 80.85307040719914 C 0.0 **** -0.24
37082 H 66.7098165975012 67.13500095599534 81.07460968889873 H 0.0 **** 0.06
37083 H 65.63989756284744 68.50736967128938 81.44877793686624 H 0.0 **** 0.06
37084 H 66.25824931308912 68.28559805606085 79.79423327816895 H 0.0 **** 0.06
37085 H 67.36137972513899 68.79115451345612 81.09677676264255 H 0.0 **** 0.06
37086 C 113.51895556907363 101.78264992814164 110.41346039438838 C 0.0 **** -0.24
37087 H 112.57064345887048 101.99585552027605 110.90567277059023 H 0.0 **** 0.06
37088 H 113.4395126853887 100.84490057562675 109.86295736391386 H 0.0 **** 0.06
37089 H 114.30659704632143 101.69899105142142 111.16207888709269 H 0.0 **** 0.06
37090 H 113.75906908571395 102.59085256524241 109.7231325559566 H 0.0 **** 0.06
37091 C 113.994394586285 98.50064744057744 57.838563121699394 C 0.0 **** -0.24
37092 H 114.49861075236156 99.43935281300139 58.06715626411909 H 0.0 **** 0.06
37093 H 113.7770741419628 98.45574451262132 56.770591108643885 H 0.0 **** 0.06
37094 H 113.06223105297352 98.44297816373563 58.401826873362324 H 0.0 **** 0.06
37095 H 114.63748149478215 97.66491827502728 58.11363862751497 H 0.0 **** 0.06
37096 C 116.87490318448704 43.48937259409047 12.963732426825487 C 0.0 **** -0.24
37097 H 117.68944841061834 43.690842828203245 13.659800970049076 H 0.0 **** 0.06
37098 H 116.88084532589093 44.23761277066677 12.170992297914921 H 0.0 **** 0.06
37099 H 115.92384622520864 43.52999603799742 13.495871541352642 H 0.0 **** 0.06
37100 H 117.00582367172466 42.49750410467692 12.529852997831426 H 0.0 **** 0.06
37101 C 98.81729777976986 28.032365248153667 98.57273728080912 C 0.0 **** -0.24
37102 H 99.08325722736544 28.57592642313827 99.47868558075479 H 0.0 **** 0.06
37103 H 97.87413441299225 27.507481996530657 98.72738868281655 H 0.0 **** 0.06
37104 H 99.60075954505149 27.312360810692354 98.33813806510852 H 0.0 **** 0.06
37105 H 98.70950549795063 28.7351890498268 97.7461012398881 H 0.0 **** 0.06
37106 C 48.06973672294774 74.44801264760662 74.92852264932881 C 0.0 **** -0.24
37107 H 48.40661468955312 75.11356446677541 75.72279938643726 H 0.0 **** 0.06
37108 H 48.881285551892546 74.2892711975147 74.21927435305682 H 0.0 **** 0.06
37109 H 47.21988701104365 74.89795306053736 74.41398135871796 H 0.0 **** 0.06
37110 H 47.76954642767956 73.4923771670961 75.35910971678351 H 0.0 **** 0.06
37111 C 4.212499958778267 92.23692733501039 64.74086437717722 C 0.0 **** -0.24
37112 H 5.130152451743498 91.99528710988582 64.20441076117686 H 0.0 **** 0.06
37113 H 3.5254913735089417 91.39206922527279 64.68224175509735 H 0.0 **** 0.06
37114 H 3.749308249694792 93.1151740485187 64.29189257265858 H 0.0 **** 0.06
37115 H 4.44670478689244 92.44270516959898 65.78528007245166 H 0.0 **** 0.06
37116 C 96.6870075222738 66.74703119988212 68.99105871003746 C 0.0 **** -0.24
37117 H 97.25299852185748 65.87058371415807 69.30658455690937 H 0.0 **** 0.06
37118 H 96.24967131620537 66.56273195902602 68.00876062842752 H 0.0 **** 0.06
37119 H 97.35115050471808 67.6087980214875 68.93744410903076 H 0.0 **** 0.06
37120 H 95.89308300345584 66.94542387896212 69.7108244713933 H 0.0 **** 0.06
37121 C 65.87864536618659 70.0867266009165 46.746183795033204 C 0.0 **** -0.24
37122 H 65.53921112623902 70.93054288394268 47.346736069930955 H 0.0 **** 0.06
37123 H 66.87869731323883 70.29212704716235 46.36413623523245 H 0.0 **** 0.06
37124 H 65.1937805975187 69.93802230702153 45.910478741842724 H 0.0 **** 0.06
37125 H 65.90143984492215 69.18827607747698 47.36210390238293 H 0.0 **** 0.06
37126 C 64.0085065000049 111.28216606453907 112.19602938935157 C 0.0 **** -0.24
37127 H 64.87426651239468 111.91433387645924 111.99735362404402 H 0.0 **** 0.06
37128 H 63.92211216040511 111.11331774650219 113.26964238434857 H 0.0 **** 0.06
37129 H 64.13181398612949 110.32604185637085 111.68643505266579 H 0.0 **** 0.06
37130 H 63.107648496075136 111.77495341832955 111.83199233086498 H 0.0 **** 0.06
37131 C 49.61894161291596 32.15510396078406 20.374387169748047 C 0.0 **** -0.24
37132 H 50.532455431967406 32.58464489418239 20.785322256065314 H 0.0 **** 0.06
37133 H 49.860847249737816 31.5636711527348 19.491360294480202 H 0.0 **** 0.06
37134 H 48.93334121572471 32.95656412059927 20.09925942560048 H 0.0 **** 0.06
37135 H 49.149427855108485 31.516882122160524 21.122652670706074 H 0.0 **** 0.06
37136 C 108.18431252161716 50.83146476830244 84.95035104906543 C 0.0 **** -0.24
37137 H 107.11314262282895 50.87076988586837 84.75110808982856 H 0.0 **** 0.06
37138 H 108.5740326564586 51.845175223589365 85.04181078941673 H 0.0 **** 0.06
37139 H 108.68757793428509 50.31982265295929 84.12939983684117 H 0.0 **** 0.06
37140 H 108.35985374940572 50.28867295240924 85.87913729462696 H 0.0 **** 0.06
37141 C 40.12349009697127 103.07709978859558 9.83508799724282 C 0.0 **** -0.24
37142 H 39.32456468194718 103.57101423739866 10.387550873301628 H 0.0 **** 0.06
37143 H 40.72777749845025 103.82681113322127 9.32332900572067 H 0.0 **** 0.06
37144 H 39.69053432915217 102.39574720903963 9.102174237848988 H 0.0 **** 0.06
37145 H 40.75105729441381 102.51560989914893 10.52667678056335 H 0.0 **** 0.06
37146 C 7.504989111403091 49.47626617784016 105.35388439904361 C 0.0 **** -0.24
37147 H 8.05592115789527 48.692156276023525 105.87386531047994 H 0.0 **** 0.06
37148 H 6.438719096094857 49.36291146244852 105.55242556963472 H 0.0 **** 0.06
37149 H 7.685625636563017 49.398710357669245 104.28225664324899 H 0.0 **** 0.06
37150 H 7.838560627239019 50.45142228419195 105.70915922204503 H 0.0 **** 0.06
37151 C 20.748341026774142 40.81502950440216 48.886698359372176 C 0.0 **** -0.24
37152 H 20.33297516510919 39.810823601708705 48.793016073136414 H 0.0 **** 0.06
37153 H 21.253628604382286 40.91035040947162 49.847084156102085 H 0.0 **** 0.06
37154 H 19.94360306916569 41.548172373622094 48.824706654844206 H 0.0 **** 0.06
37155 H 21.461028884853505 40.989198501644466 48.080573836631515 H 0.0 **** 0.06
37156 C 104.36315628990653 18.063303143987127 24.33788175172606 C 0.0 **** -0.24
37157 H 104.1767474553692 18.112699230348085 23.264286650504346 H 0.0 **** 0.06
37158 H 104.34286896820532 17.023072402709715 24.66249072365011 H 0.0 **** 0.06
37159 H 103.59200870963738 18.62486358339393 24.865312180658435 H 0.0 **** 0.06
37160 H 105.34095498904705 18.494164291456144 24.556525363024463 H 0.0 **** 0.06
37161 C 115.48900861810208 112.71349818251629 55.229175235109714 C 0.0 **** -0.24
37162 H 115.29662031724777 112.90079489029823 56.28576090389978 H 0.0 **** 0.06
37163 H 115.0745531486301 111.74370466367802 54.95159491272991 H 0.0 **** 0.06
37164 H 116.56387375391134 112.71400056032722 55.04966416338974 H 0.0 **** 0.06
37165 H 115.01977123525978 113.49379632140302 54.630963239086356 H 0.0 **** 0.06
37166 C 73.2885775850934 58.2374984258723 1.0912896442626856 C 0.0 **** -0.24
37167 H 73.83044479708366 57.61066740015423 1.7990560760663783 H 0.0 **** 0.06
37168 H 73.54979607123724 57.94586168046317 0.07378607689027028 H 0.0 **** 0.06
37169 H 73.55818300242322 59.28217817538274 1.2504115564008949 H 0.0 **** 0.06
37170 H 72.21666234023999 58.11234391916696 1.2424339192627407 H 0.0 **** 0.06
37171 C 6.921667142486996 97.55160302503128 88.98989722655386 C 0.0 **** -0.24
37172 H 7.9626147496275905 97.8660271537222 89.0640127139101 H 0.0 **** 0.06
37173 H 6.488676427390288 97.4915058166606 89.98845365538668 H 0.0 **** 0.06
37174 H 6.871984204143786 96.57322918962359 88.51158369503969 H 0.0 **** 0.06
37175 H 6.365804560635979 98.27555510526761 88.39511855209463 H 0.0 **** 0.06
37176 C 31.84286405077961 33.4685993185205 106.13936639779251 C 0.0 **** -0.24
37177 H 31.924426799087257 34.183349556351345 105.32019900869247 H 0.0 **** 0.06
37178 H 32.17227575303747 33.938717699702565 107.06627482977643 H 0.0 **** 0.06
37179 H 32.47057264559163 32.602666849885004 105.92810714583959 H 0.0 **** 0.06
37180 H 30.80514606602162 33.15008905278022 106.24067380799542 H 0.0 **** 0.06
37181 C 34.89124558589233 73.24357469190304 96.51171637663904 C 0.0 **** -0.24
37182 H 35.9275168974869 72.90925496599269 96.47382709030441 H 0.0 **** 0.06
37183 H 34.24362743955477 72.4634114654881 96.11186685919347 H 0.0 **** 0.06
37184 H 34.780275722974416 74.1496709582122 95.91607066325781 H 0.0 **** 0.06
37185 H 34.61435189143833 73.45180487495037 97.54450752648853 H 0.0 **** 0.06
37186 C 106.89484119409903 27.99314334260157 103.60062190532241 C 0.0 **** -0.24
37187 H 107.08922769927293 27.158608214371313 102.92633589621354 H 0.0 **** 0.06
37188 H 105.85591350090505 28.308482273540932 103.49809753016567 H 0.0 **** 0.06
37189 H 107.55389277221579 28.824940508338315 103.34818741804506 H 0.0 **** 0.06
37190 H 107.08119660375058 27.681406765095375 104.6279950098151 H 0.0 **** 0.06
37191 C 42.88076648875682 92.45360199073912 72.33080538737039 C 0.0 **** -0.24
37192 H 42.67485153045453 93.20492714944893 73.09361869638963 H 0.0 **** 0.06
37193 H 42.725363100148684 92.88730297450215 71.34328132460504 H 0.0 **** 0.06
37194 H 42.21013087322234 91.6045726268078 72.46542936787841 H 0.0 **** 0.06
37195 H 43.9143021182889 92.1180701414032 72.42240294280688 H 0.0 **** 0.06
37196 C 73.28234155549197 100.49428820251845 7.262931322036749 C 0.0 **** -0.24
37197 H 72.49215973848689 101.14095220415706 6.88377590543557 H 0.0 **** 0.06
37198 H 73.38947225048406 100.64396354193948 8.337517245158537 H 0.0 **** 0.06
37199 H 74.22187632006867 100.73775604629765 6.766366691499627 H 0.0 **** 0.06
37200 H 73.02546091453814 99.4528863639595 7.0646128466988785 H 0.0 **** 0.06
37201 C 63.67163676302189 24.49409442035011 99.61389344575511 C 0.0 **** -0.24
37202 H 63.52054148479818 23.53886954878982 99.11152385577384 H 0.0 **** 0.06
37203 H 63.492144197846095 24.37599198080636 100.6820454687334 H 0.0 **** 0.06
37204 H 62.977825361581374 25.23040188169 99.20770549075826 H 0.0 **** 0.06
37205 H 64.69493058843821 24.83159504270452 99.45216653792832 H 0.0 **** 0.06
37206 C 111.10167476012151 35.278786850041456 86.91978713020532 C 0.0 **** -0.24
37207 H 110.15241305731584 34.80591254103379 87.17112288874068 H 0.0 **** 0.06
37208 H 111.24041296879847 36.16616040010294 87.53682555782595 H 0.0 **** 0.06
37209 H 111.09907536910146 35.563226280949635 85.86732000404808 H 0.0 **** 0.06
37210 H 111.91584662269844 34.57670525997963 87.10402959048918 H 0.0 **** 0.06
37211 C 46.902190429004015 66.01585003785004 94.7886169971651 C 0.0 **** -0.24
37212 H 47.40658126404466 65.05152689146036 94.85889069290181 H 0.0 **** 0.06
37213 H 47.5920272157736 66.7572795427663 94.3853527256934 H 0.0 **** 0.06
37214 H 46.57246648473524 66.32523375347597 95.77997634431824 H 0.0 **** 0.06
37215 H 46.03813286253473 65.92586987599648 94.12946016863697 H 0.0 **** 0.06
37216 C 84.10012703958336 92.82066107644854 93.34403244095947 C 0.0 **** -0.24
37217 H 83.81173164965995 91.81111721738677 93.05082282683875 H 0.0 **** 0.06
37218 H 84.36823871948269 93.39353590533608 92.45555441287092 H 0.0 **** 0.06
37219 H 84.95564964721018 92.77306667754212 94.01799418184632 H 0.0 **** 0.06
37220 H 83.26498279547639 93.30437231695427 93.8509299782001 H 0.0 **** 0.06
37221 C 40.69453234597978 65.86576479134061 98.15678598931433 C 0.0 **** -0.24
37222 H 39.900123278916794 65.36281881507813 97.60632428616177 H 0.0 **** 0.06
37223 H 41.347153348837736 65.1216623498592 98.61442996378193 H 0.0 **** 0.06
37224 H 40.25766670439583 66.49247063000024 98.93385917394758 H 0.0 **** 0.06
37225 H 41.273642292144615 66.4852255853541 97.47241070696248 H 0.0 **** 0.06
37226 C 45.359231379573 79.49482719313664 82.35957042409262 C 0.0 **** -0.24
37227 H 45.94916113082411 78.67409552550623 82.76761575062247 H 0.0 **** 0.06
37228 H 45.96995967206689 80.06980058278685 81.66382399293602 H 0.0 **** 0.06
37229 H 45.02620656083144 80.141400624737 83.17244429621408 H 0.0 **** 0.06
37230 H 44.49237018786556 79.09280996966174 81.8368388573524 H 0.0 **** 0.06
37231 C 66.95353124461869 71.80555532992543 114.89682335153587 C 0.0 **** -0.24
37232 H 66.44616397323631 71.87740977814394 115.85905772085864 H 0.0 **** 0.06
37233 H 66.87333655440776 70.78564728190662 114.51920181987371 H 0.0 **** 0.06
37234 H 68.00545825090634 72.06493532763847 115.02148382479172 H 0.0 **** 0.06
37235 H 66.49056616784551 72.49332466558735 114.19004461855468 H 0.0 **** 0.06
37236 C 104.10207542551234 78.00205981968173 12.56295060326778 C 0.0 **** -0.24
37237 H 103.17798148815521 77.56331577379322 12.940443220134085 H 0.0 **** 0.06
37238 H 103.97072725070046 78.28105157622429 11.517578509883123 H 0.0 **** 0.06
37239 H 104.91020903084117 77.27554734867314 12.647916923835453 H 0.0 **** 0.06
37240 H 104.34762582616278 78.8881265680281 13.148286646111018 H 0.0 **** 0.06
37241 C 55.44935261054303 97.35861168297737 74.03887794758435 C 0.0 **** -0.24
37242 H 54.92977520889403 98.30827584625729 73.90659816367395 H 0.0 **** 0.06
37243 H 56.521460725868735 97.51079012658877 73.91340487408698 H 0.0 **** 0.06
37244 H 55.09370351909595 96.64431360795919 73.29636158462642 H 0.0 **** 0.06
37245 H 55.25084188251907 96.9725539352834 75.03877868469993 H 0.0 **** 0.06
37246 C 25.66973739237085 109.23054097051892 67.1629178437291 C 0.0 **** -0.24
37247 H 26.213859916403237 108.59138856039223 66.46775856066637 H 0.0 **** 0.06
37248 H 26.267836287289413 109.3829885716122 68.06131920679982 H 0.0 **** 0.06
37249 H 24.725800981651048 108.75417489893212 67.4308414942515 H 0.0 **** 0.06
37250 H 25.46912569068894 110.19203976600801 66.69069590632824 H 0.0 **** 0.06
37251 C 79.77424179419631 95.77924386995721 55.30369958867579 C 0.0 **** -0.24
37252 H 78.85973356254885 95.58693886745306 54.74229058271368 H 0.0 **** 0.06
37253 H 80.55772991583694 95.10028391922893 54.96498082074793 H 0.0 **** 0.06
37254 H 79.58929274650313 95.62009316615419 56.36559761458012 H 0.0 **** 0.06
37255 H 80.09071724820092 96.80995353716222 55.139771209032396 H 0.0 **** 0.06
37256 C 89.63014659212956 18.64839464372193 10.699708013549817 C 0.0 **** -0.24
37257 H 90.65595747400761 18.328153595373152 10.521157757344703 H 0.0 **** 0.06
37258 H 89.10633901957812 17.886333983309612 11.277068184230899 H 0.0 **** 0.06
37259 H 89.12285286731984 18.793009893178805 9.744671779946746 H 0.0 **** 0.06
37260 H 89.63334839130226 19.586580687118555 11.254756008022284 H 0.0 **** 0.06
37261 C 55.10642247296217 69.86146778132837 50.41874362420828 C 0.0 **** -0.24
37262 H 54.01950288195407 69.93800889382604 50.40453827090927 H 0.0 **** 0.06
37263 H 55.47163411424672 69.69775894156737 49.4046181521879 H 0.0 **** 0.06
37264 H 55.40285255697953 69.02421982259602 51.050800302551195 H 0.0 **** 0.06
37265 H 55.530600648919766 70.78419750071814 50.81404386572101 H 0.0 **** 0.06
37266 C 66.62848613824553 23.23727964779141 60.280948736089236 C 0.0 **** -0.24
37267 H 66.91407411268398 24.28372611892371 60.38745625916942 H 0.0 **** 0.06
37268 H 65.62816734851003 23.17602399047354 59.85284406796506 H 0.0 **** 0.06
37269 H 66.63628191252968 22.757589461762194 61.260180668034245 H 0.0 **** 0.06
37270 H 67.33718023017434 22.732359419750594 59.62406834314755 H 0.0 **** 0.06
37271 C 103.78633427086447 56.03015843126597 33.64381876304131 C 0.0 **** -0.24
37272 H 104.77994468504639 56.072346253528885 33.19715207739958 H 0.0 **** 0.06
37273 H 103.33480911207312 57.023196860266374 33.61853186330853 H 0.0 **** 0.06
37274 H 103.86672876661828 55.69356586858168 34.67770356057966 H 0.0 **** 0.06
37275 H 103.16476221220415 55.33368792200853 33.081182497031364 H 0.0 **** 0.06
37276 C 82.73572689102218 69.84620798889691 101.92364128885501 C 0.0 **** -0.24
37277 H 82.66572538406854 69.90519920829624 100.83786490914451 H 0.0 **** 0.06
37278 H 81.82977826555646 70.25661250654628 102.36936404345937 H 0.0 **** 0.06
37279 H 83.59960960685771 70.4173636809949 102.26378155998168 H 0.0 **** 0.06
37280 H 82.8484218563969 68.80440565654621 102.22375845845383 H 0.0 **** 0.06
37281 C 113.23300199228174 19.162911183923196 22.882930123179676 C 0.0 **** -0.24
37282 H 113.54977510495371 18.733667973128256 23.83301884596949 H 0.0 **** 0.06
37283 H 113.75602672837658 18.663968803382044 22.066657964939793 H 0.0 **** 0.06
37284 H 113.46914712450737 20.227555610137646 22.868739653637533 H 0.0 **** 0.06
37285 H 112.15866782469215 19.02708336693812 22.7634211244075 H 0.0 **** 0.06
37286 C 39.59085351676802 79.74902977030041 43.654093073192215 C 0.0 **** -0.24
37287 H 39.116960518804866 79.37253814789852 42.74669781933238 H 0.0 **** 0.06
37288 H 38.980772691711934 80.54811610104997 44.076989134380575 H 0.0 **** 0.06
37289 H 40.58087056847981 80.13500799346224 43.41266072904138 H 0.0 **** 0.06
37290 H 39.682606221210015 78.93956456053712 44.37793978044017 H 0.0 **** 0.06
37291 C 94.70646233088266 6.829901542109937 66.98414728748352 C 0.0 **** -0.24
37292 H 93.755504962466 6.9997206245112835 66.47792578557221 H 0.0 **** 0.06
37293 H 95.21537192674057 5.982061433029983 66.5251039696225 H 0.0 **** 0.06
37294 H 94.52457837330368 6.6184675242822095 68.03801514926971 H 0.0 **** 0.06
37295 H 95.3287687527044 7.719673521463619 66.89404150864206 H 0.0 **** 0.06
37296 C 41.66173381572645 103.44651973509966 113.90490640707296 C 0.0 **** -0.24
37297 H 42.68829938651644 103.3062380971904 113.5659480348787 H 0.0 **** 0.06
37298 H 41.52200339376258 104.4797040845097 114.22272407914859 H 0.0 **** 0.06
37299 H 41.46029357715166 102.77786212646316 114.7410650810934 H 0.0 **** 0.06
37300 H 40.97580845506984 103.22192750044934 113.08774404172311 H 0.0 **** 0.06
37301 C 11.590829925297562 36.55063131541509 38.820786027715656 C 0.0 **** -0.24
37302 H 10.898677255516695 35.73589897589454 38.61137880562674 H 0.0 **** 0.06
37303 H 12.584935533035523 36.143711054986326 39.006717544666884 H 0.0 **** 0.06
37304 H 11.252001918961625 37.09725870943578 39.70060681590567 H 0.0 **** 0.06
37305 H 11.627766453544865 37.22508783305531 37.96526123416899 H 0.0 **** 0.06
37306 C 78.91560511767898 32.59172153262702 20.191222104094606 C 0.0 **** -0.24
37307 H 78.88517010466967 31.83728587639206 20.977511576449103 H 0.0 **** 0.06
37308 H 77.98353907331648 33.15782935330378 20.195518656026593 H 0.0 **** 0.06
37309 H 79.04040306334275 32.103072635062375 19.22454876821729 H 0.0 **** 0.06
37310 H 79.75220092659282 33.26668672118481 20.36816259816021 H 0.0 **** 0.06
37311 C 79.66266820256718 31.174642790125517 85.29017870662793 C 0.0 **** -0.24
37312 H 78.72479428197585 30.811408619245128 85.71195126813745 H 0.0 **** 0.06
37313 H 79.73444316228347 32.25206392487689 85.43898604675454 H 0.0 **** 0.06
37314 H 79.6918151412055 30.950886741254862 84.22335758304513 H 0.0 **** 0.06
37315 H 80.49825255866381 30.681421424497785 85.78757903114487 H 0.0 **** 0.06
37316 C 45.42833963955624 71.8746743414668 59.957380140316985 C 0.0 **** -0.24
37317 H 45.98631480186333 71.86976923799651 59.021134864502244 H 0.0 **** 0.06
37318 H 45.82925453601402 72.64658498911604 60.61396809536285 H 0.0 **** 0.06
37319 H 45.52232406189145 70.90128878482173 60.44003853313279 H 0.0 **** 0.06
37320 H 44.378007462064176 72.07966640565101 59.75276322914627 H 0.0 **** 0.06
37321 C 40.33216745247158 62.34224982067457 55.67263480465861 C 0.0 **** -0.24
37322 H 39.31658241064494 62.039812102817564 55.41792516856493 H 0.0 **** 0.06
37323 H 40.52200900361359 62.127263559818175 56.72475396491998 H 0.0 **** 0.06
37324 H 40.44836014565426 63.41164398001638 55.49354258748249 H 0.0 **** 0.06
37325 H 41.040998761106124 61.79030571920265 55.05501155400871 H 0.0 **** 0.06
37326 C 28.63978578659885 20.45275873195223 90.14272931088573 C 0.0 **** -0.24
37327 H 29.69280186957627 20.641090485631707 89.93003720123176 H 0.0 **** 0.06
37328 H 28.139815361982755 21.395638003198414 90.36463882257826 H 0.0 **** 0.06
37329 H 28.557543072401074 19.785950834154363 91.00111147478447 H 0.0 **** 0.06
37330 H 28.172127876118395 19.98804602996067 89.27501350329891 H 0.0 **** 0.06
37331 C 18.05720953765021 93.84334227671587 19.44315903853955 C 0.0 **** -0.24
37332 H 18.657881987938907 94.26023470638418 18.634129410362767 H 0.0 **** 0.06
37333 H 18.715334608309803 93.40149002118955 20.19145280222497 H 0.0 **** 0.06
37334 H 17.393713815942192 93.07576255152921 19.043646316027864 H 0.0 **** 0.06
37335 H 17.46396145464783 94.63482418576638 19.901027649247077 H 0.0 **** 0.06
37336 C 76.11475717036828 23.9942121074331 18.410105685902323 C 0.0 **** -0.24
37337 H 76.16127063343168 23.21031715808425 17.65450013694212 H 0.0 **** 0.06
37338 H 75.47307967249071 24.801353073197276 18.05619320877622 H 0.0 **** 0.06
37339 H 77.11646979506153 24.38016047423048 18.59462166628012 H 0.0 **** 0.06
37340 H 75.70675376709931 23.584030202552185 19.333402249184616 H 0.0 **** 0.06
37341 C 97.47784573804489 29.67014630838719 2.05729932713572 C 0.0 **** -0.24
37342 H 98.14702194533649 28.835694911385076 1.8480563431855774 H 0.0 **** 0.06
37343 H 97.71358511168472 30.087179808565566 3.0364773431458705 H 0.0 **** 0.06
37344 H 96.44575365890466 29.31930686150082 2.0502845931145828 H 0.0 **** 0.06
37345 H 97.6059128772223 30.438355200018293 1.2939268459268582 H 0.0 **** 0.06
37346 C 105.39606971405004 100.71630921971467 25.328255226346073 C 0.0 **** -0.24
37347 H 105.22043768512998 100.53742027920777 24.26693351550881 H 0.0 **** 0.06
37348 H 105.83093472232707 99.82368541889377 25.7788579253218 H 0.0 **** 0.06
37349 H 104.45155652628529 100.94815416353356 25.81842276238801 H 0.0 **** 0.06
37350 H 106.08231136805267 101.5543498681925 25.446271234953997 H 0.0 **** 0.06
37351 C 112.21217711228908 81.6330403270232 111.00020142284053 C 0.0 **** -0.24
37352 H 111.16909641063575 81.41250381669462 111.22837000638424 H 0.0 **** 0.06
37353 H 112.55948016711909 82.4452155883908 111.63896703864626 H 0.0 **** 0.06
37354 H 112.29939466621707 81.92983531785342 109.95480751301571 H 0.0 **** 0.06
37355 H 112.81813779128655 80.74546310255496 111.17743233212984 H 0.0 **** 0.06
37356 C 89.97744532739455 16.979017591756616 31.9028771590294 C 0.0 **** -0.24
37357 H 90.00245824192965 15.95188554765258 31.53902322925174 H 0.0 **** 0.06
37358 H 89.0006251857248 17.414498670674533 31.690600792854468 H 0.0 **** 0.06
37359 H 90.75180998839375 17.560728689077308 31.40302605398 H 0.0 **** 0.06
37360 H 90.15428323449223 16.98687687842275 32.97830551201062 H 0.0 **** 0.06
37361 C 93.17686805240604 39.27089713030972 110.00786813557286 C 0.0 **** -0.24
37362 H 92.59547841086109 40.0899220445657 110.43171582618932 H 0.0 **** 0.06
37363 H 92.90321071210943 38.338195796448986 110.5004434221673 H 0.0 **** 0.06
37364 H 94.23914970307158 39.46360965770293 110.15782527486047 H 0.0 **** 0.06
37365 H 92.96953811205827 39.19238374385117 108.94017736928686 H 0.0 **** 0.06
37366 C 13.144401364228543 25.34117349125313 79.92719371372374 C 0.0 **** -0.24
37367 H 13.235438150006331 24.27083195328521 80.11239055937628 H 0.0 **** 0.06
37368 H 13.066075990782053 25.86788838810014 80.87833415030292 H 0.0 **** 0.06
37369 H 12.251914722036531 25.532066088238082 79.33161235490775 H 0.0 **** 0.06
37370 H 14.023536538915863 25.692940289570004 79.3883496108256 H 0.0 **** 0.06
37371 C 41.260699126062605 33.80930557544272 16.08052951467272 C 0.0 **** -0.24
37372 H 41.57051823046493 34.69179010534617 16.640381059277388 H 0.0 **** 0.06
37373 H 40.48643731131901 34.08720372283324 15.364591738169167 H 0.0 **** 0.06
37374 H 40.867370084555006 33.062544668469016 16.770293955642103 H 0.0 **** 0.06
37375 H 42.11726097574868 33.397070826526516 15.54846767800069 H 0.0 **** 0.06
37376 C 66.89906968032003 78.034496012034 12.00236627667934 C 0.0 **** -0.24
37377 H 66.78807133565599 79.094493458821 11.774833146883367 H 0.0 **** 0.06
37378 H 66.73029862040266 77.44948189886071 11.0980364632685 H 0.0 **** 0.06
37379 H 66.17229974635165 77.74845167114304 12.761944186638885 H 0.0 **** 0.06
37380 H 67.90634110352872 77.84766538499167 12.374789653702067 H 0.0 **** 0.06
37381 C 18.49181025835955 92.91990799833547 11.996666774820028 C 0.0 **** -0.24
37382 H 18.9249898425264 91.94092081206381 11.791654322752606 H 0.0 **** 0.06
37383 H 18.65606585072956 93.1770641698835 13.043406671991761 H 0.0 **** 0.06
37384 H 17.421675145453918 92.89400857208071 11.791248600402696 H 0.0 **** 0.06
37385 H 18.9669563479778 93.6675105634468 11.360375763146862 H 0.0 **** 0.06
37386 C 6.920143667483444 51.19157497027041 17.485360983186894 C 0.0 **** -0.24
37387 H 7.605224532438953 52.02832557305962 17.62308980065555 H 0.0 **** 0.06
37388 H 6.199937352901159 51.17288038570064 18.303897483025366 H 0.0 **** 0.06
37389 H 7.483750336256648 50.25824181421524 17.474620527350083 H 0.0 **** 0.06
37390 H 6.391732351127516 51.30732765061666 16.538959177317878 H 0.0 **** 0.06
37391 C 41.05266273028559 12.310538895614116 77.16537366368075 C 0.0 **** -0.24
37392 H 40.01166445557058 12.277703166397032 77.48855014849246 H 0.0 **** 0.06
37393 H 41.175767303346234 11.696744060514078 76.27311208238902 H 0.0 **** 0.06
37394 H 41.69195594862353 11.928310262620272 77.96127380255513 H 0.0 **** 0.06
37395 H 41.33012886112283 13.340435746399635 76.94046567951062 H 0.0 **** 0.06
37396 C 110.4791506138476 16.705217793190712 16.71412003462578 C 0.0 **** -0.24
37397 H 109.97792339093314 17.19216950560019 17.550715443540625 H 0.0 **** 0.06
37398 H 110.00965297851201 15.740241102825308 16.52180114448582 H 0.0 **** 0.06
37399 H 111.53100519232912 16.556091918832806 16.95760099453166 H 0.0 **** 0.06
37400 H 110.3962755961628 17.33334172133533 15.826447963555665 H 0.0 **** 0.06
37401 C 56.080876505525254 20.581299612440475 77.7556405600161 C 0.0 **** -0.24
37402 H 56.35753810447099 20.92244800761901 78.75432060347163 H 0.0 **** 0.06
37403 H 56.54997455303695 19.61782715336176 77.55739731518145 H 0.0 **** 0.06
37404 H 56.41770415345431 21.30969431266844 77.01791169758951 H 0.0 **** 0.06
37405 H 54.99701574331206 20.47829652575936 77.69537586231866 H 0.0 **** 0.06
37406 C 76.99017090493908 50.87994399136991 31.179126441674462 C 0.0 **** -0.24
37407 H 77.89989621085363 51.44504390965537 30.975869146392604 H 0.0 **** 0.06
37408 H 76.47752569687634 51.31219910714445 32.03878684423646 H 0.0 **** 0.06
37409 H 77.24800964252069 49.8421924209905 31.393038795617173 H 0.0 **** 0.06
37410 H 76.33602079375152 50.91870366453735 30.307956593953627 H 0.0 **** 0.06
37411 C 24.832396904315374 76.4409766206912 80.27661239222058 C 0.0 **** -0.24
37412 H 24.336954246238363 75.64793994276013 79.71657313994464 H 0.0 **** 0.06
37413 H 24.78359485921561 76.21747273184451 81.34316902235955 H 0.0 **** 0.06
37414 H 24.334908203302476 77.39000123799289 80.08011364308356 H 0.0 **** 0.06
37415 H 25.875759594021076 76.50670595148327 79.96698590343902 H 0.0 **** 0.06
37416 C 45.53980482932488 92.6070599909171 89.30247390300781 C 0.0 **** -0.24
37417 H 45.22469949407284 91.7596272104771 89.91091934217832 H 0.0 **** 0.06
37418 H 46.22432788006029 93.23249043549575 89.87653016325004 H 0.0 **** 0.06
37419 H 44.666668361498665 93.19216342383487 89.01463328891347 H 0.0 **** 0.06
37420 H 46.04427383672933 92.24364121331317 88.40723294272794 H 0.0 **** 0.06
37421 C 116.01998865616497 55.00794576377959 72.31354650791769 C 0.0 **** -0.24
37422 H 115.35753378678827 54.77735107801101 73.14871792136589 H 0.0 **** 0.06
37423 H 117.05659733951931 54.94138308247011 72.64371981153661 H 0.0 **** 0.06
37424 H 115.81550307434861 56.01672150674389 71.95561958189322 H 0.0 **** 0.06
37425 H 115.84881503823485 54.2940058849037 71.50728844295423 H 0.0 **** 0.06
37426 C 47.09372555099442 21.127088850316483 2.897494226065362 C 0.0 **** -0.24
37427 H 47.12532163482233 20.4341742522642 2.0567215979848754 H 0.0 **** 0.06
37428 H 46.1734569126977 21.710126842791055 2.852461504388657 H 0.0 **** 0.06
37429 H 47.95188457510944 21.79666069224325 2.848268689825318 H 0.0 **** 0.06
37430 H 47.123638288962624 20.56595097217155 3.831276886365572 H 0.0 **** 0.06
37431 C 101.01229527212519 15.406806943486288 92.11865599763479 C 0.0 **** -0.24
37432 H 101.99932482300275 15.522502751629588 92.5669647569209 H 0.0 **** 0.06
37433 H 100.29204958144419 15.13873397825708 92.89281793638057 H 0.0 **** 0.06
37434 H 101.04598139623673 14.61994214475726 91.36503831585787 H 0.0 **** 0.06
37435 H 100.71395843154679 16.345016589569155 91.65269864266239 H 0.0 **** 0.06
37436 C 60.85466536716935 75.39470659098828 82.76216617884012 C 0.0 **** -0.24
37437 H 60.5590135901626 74.34624154735101 82.72109716087041 H 0.0 **** 0.06
37438 H 60.05593513288398 75.97983053229478 83.21886586454744 H 0.0 **** 0.06
37439 H 61.04016014326569 75.75948851329588 81.75133658209754 H 0.0 **** 0.06
37440 H 61.762857913980845 75.49349693041319 83.35668390894764 H 0.0 **** 0.06
37441 C 83.53967654391337 72.34477518425342 90.22691261480409 C 0.0 **** -0.24
37442 H 82.61741867791969 72.74663322940864 90.64580767973197 H 0.0 **** 0.06
37443 H 83.64146076670767 72.67206003103334 89.19143385435777 H 0.0 **** 0.06
37444 H 83.50961662303709 71.2554990808278 90.26301770595356 H 0.0 **** 0.06
37445 H 84.38975147693859 72.7040202846267 90.80735999800584 H 0.0 **** 0.06
37446 C 41.675140101191516 42.822074064584086 75.66760692147696 C 0.0 **** -0.24
37447 H 42.09578287990854 43.616199499833016 75.04973064917093 H 0.0 **** 0.06
37448 H 41.67463653469251 43.1353984056301 76.71106372791587 H 0.0 **** 0.06
37449 H 42.277830494000796 41.919663921873905 75.5586396186277 H 0.0 **** 0.06
37450 H 40.6536399704388 42.61711877995273 75.34830558483242 H 0.0 **** 0.06
37451 C 72.86044024512239 6.034994078576361 43.81534976751567 C 0.0 **** -0.24
37452 H 73.38457910856692 6.927340849400167 44.156194611406136 H 0.0 **** 0.06
37453 H 73.54086776593786 5.415673610507355 43.2295757430012 H 0.0 **** 0.06
37454 H 72.01101962432415 6.325842952662583 43.198462398480096 H 0.0 **** 0.06
37455 H 72.5065760621967 5.469578883528754 44.678159387185886 H 0.0 **** 0.06
37456 C 77.67849667035935 88.00971339299372 6.393581408280994 C 0.0 **** -0.24
37457 H 77.3881772380173 86.98777077537366 6.149209768437231 H 0.0 **** 0.06
37458 H 77.95283877945505 88.06734564034593 7.446794817474029 H 0.0 **** 0.06
37459 H 76.84169941536723 88.68060145080688 6.198176289024417 H 0.0 **** 0.06
37460 H 78.52995185073613 88.30150644856155 5.779366938112588 H 0.0 **** 0.06
37461 C 42.210435349167795 36.51142183279778 9.263794336047365 C 0.0 **** -0.24
37462 H 41.230769287625634 36.96801177202002 9.405196638188244 H 0.0 **** 0.06
37463 H 42.93988311507417 37.01431244134267 9.898411181202661 H 0.0 **** 0.06
37464 H 42.508395845004884 36.60546955583567 8.219853198311299 H 0.0 **** 0.06
37465 H 42.16070488805681 35.455986642261706 9.534042533046073 H 0.0 **** 0.06
37466 C 16.20915335409802 54.91256825052577 43.30809723044567 C 0.0 **** -0.24
37467 H 17.272134083304678 55.094678101876546 43.14770526532868 H 0.0 **** 0.06
37468 H 15.652740429567928 55.83191661051108 43.12561484969274 H 0.0 **** 0.06
37469 H 16.04758644657599 54.58611695625868 44.33469898734114 H 0.0 **** 0.06
37470 H 15.866348444533372 54.13799898293692 42.622136730299644 H 0.0 **** 0.06
37471 C 28.013369127298006 9.351076483915932 70.13561581817072 C 0.0 **** -0.24
37472 H 27.089859780168695 9.892588140200274 69.93153945857105 H 0.0 **** 0.06
37473 H 28.656061779697325 9.956635372241749 70.77385096121452 H 0.0 **** 0.06
37474 H 28.52620235156337 9.140276749870168 69.19752782290891 H 0.0 **** 0.06
37475 H 27.77949630114358 8.41323212863324 70.63982515715767 H 0.0 **** 0.06
37476 C 89.71596681736366 70.68202505864502 3.662109374475687 C 0.0 **** -0.24
37477 H 89.61875495297889 71.3375732837529 4.527137067654175 H 0.0 **** 0.06
37478 H 88.78297914668215 70.13633338427309 3.5128535075337677 H 0.0 **** 0.06
37479 H 90.5278157879375 69.97446780111053 3.831819630469159 H 0.0 **** 0.06
37480 H 89.93355014152388 71.27820165780659 2.776924973044725 H 0.0 **** 0.06
37481 C 117.90614840711173 14.913464307118744 61.80022470612522 C 0.0 **** -0.24
37482 H 118.68982610915648 15.578448287546621 62.16279348197443 H 0.0 **** 0.06
37483 H 116.93141460096183 15.320487248370853 62.07000596603274 H 0.0 **** 0.06
37484 H 118.02837565572172 13.929489938171457 62.252068112213465 H 0.0 **** 0.06
37485 H 117.97689294494756 14.827922739778728 60.71567666799041 H 0.0 **** 0.06
37486 C 68.07585364207083 81.96023527239376 78.34992423375988 C 0.0 **** -0.24
37487 H 68.77096065880625 81.45784636331558 77.67752095844233 H 0.0 **** 0.06
37488 H 67.82458137563694 81.29419111897201 79.17626501711521 H 0.0 **** 0.06
37489 H 67.16929300797605 82.22235054121015 77.80574146192103 H 0.0 **** 0.06
37490 H 68.53994176886954 82.86631817144081 78.74046822087865 H 0.0 **** 0.06
37491 C 17.92472672207566 16.519992195697142 113.63454398619356 C 0.0 **** -0.24
37492 H 16.967929255916474 16.899282912718093 113.2755944998205 H 0.0 **** 0.06
37493 H 18.139827122095497 16.946198189815277 114.61461125845295 H 0.0 **** 0.06
37494 H 18.7122564736174 16.801872456824157 112.93444893763555 H 0.0 **** 0.06
37495 H 17.879315499092357 15.433911976123198 113.71148626649799 H 0.0 **** 0.06
37496 C 19.912330337895533 111.6904236191398 62.12133156422016 C 0.0 **** -0.24
37497 H 20.184625592125368 110.87382973813591 61.45267896746262 H 0.0 **** 0.06
37498 H 20.513762816076323 111.63231905736862 63.028438169737655 H 0.0 **** 0.06
37499 H 18.85619752423641 111.61026294560975 62.37981241048047 H 0.0 **** 0.06
37500 H 20.09396696222865 112.64297788815371 61.62470896596059 H 0.0 **** 0.06
@<TRIPOS>BOND
1 1 2 28
2 1 3 28
3 1 4 28
4 1 5 28
5 6 7 28
6 6 8 28
7 6 9 28
8 6 10 28
9 11 12 28
10 11 13 28
11 11 14 28
12 11 15 28
13 16 17 28
14 16 18 28
15 16 19 28
16 16 20 28
17 21 22 28
18 21 23 28
19 21 24 28
20 21 25 28
21 26 27 28
22 26 28 28
23 26 29 28
24 26 30 28
25 31 32 28
26 31 33 28
27 31 34 28
28 31 35 28
29 36 37 28
30 36 38 28
31 36 39 28
32 36 40 28
33 41 42 28
34 41 43 28
35 41 44 28
36 41 45 28
37 46 47 28
38 46 48 28
39 46 49 28
40 46 50 28
41 51 52 28
42 51 53 28
43 51 54 28
44 51 55 28
45 56 57 28
46 56 58 28
47 56 59 28
48 56 60 28
49 61 62 28
50 61 63 28
51 61 64 28
52 61 65 28
53 66 67 28
54 66 68 28
55 66 69 28
56 66 70 28
57 71 72 28
58 71 73 28
59 71 74 28
60 71 75 28
61 76 77 28
62 76 78 28
63 76 79 28
64 76 80 28
65 81 82 28
66 81 83 28
67 81 84 28
68 81 85 28
69 86 87 28
70 86 88 28
71 86 89 28
72 86 90 28
73 91 92 28
74 91 93 28
75 91 94 28
76 91 95 28
77 96 97 28
78 96 98 28
79 96 99 28
80 96 100 28
81 101 102 28
82 101 103 28
83 101 104 28
84 101 105 28
85 106 107 28
86 106 108 28
87 106 109 28
88 106 110 28
89 111 112 28
90 111 113 28
91 111 114 28
92 111 115 28
93 116 117 28
94 116 118 28
95 116 119 28
96 116 120 28
97 121 122 28
98 121 123 28
99 121 124 28
100 121 125 28
101 126 127 28
102 126 128 28
103 126 129 28
104 126 130 28
105 131 132 28
106 131 133 28
107 131 134 28
108 131 135 28
109 136 137 28
110 136 138 28
111 136 139 28
112 136 140 28
113 141 142 28
114 141 143 28
115 141 144 28
116 141 145 28
117 146 147 28
118 146 148 28
119 146 149 28
120 146 150 28
121 151 152 28
122 151 153 28
123 151 154 28
124 151 155 28
125 156 157 28
126 156 158 28
127 156 159 28
128 156 160 28
129 161 162 28
130 161 163 28
131 161 164 28
132 161 165 28
133 166 167 28
134 166 168 28
135 166 169 28
136 166 170 28
137 171 172 28
138 171 173 28
139 171 174 28
140 171 175 28
141 176 177 28
142 176 178 28
143 176 179 28
144 176 180 28
145 181 182 28
146 181 183 28
147 181 184 28
148 181 185 28
149 186 187 28
150 186 188 28
151 186 189 28
152 186 190 28
153 191 192 28
154 191 193 28
155 191 194 28
156 191 195 28
157 196 197 28
158 196 198 28
159 196 199 28
160 196 200 28
161 201 202 28
162 201 203 28
163 201 204 28
164 201 205 28
165 206 207 28
166 206 208 28
167 206 209 28
168 206 210 28
169 211 212 28
170 211 213 28
171 211 214 28
172 211 215 28
173 216 217 28
174 216 218 28
175 216 219 28
176 216 220 28
177 221 222 28
178 221 223 28
179 221 224 28
180 221 225 28
181 226 227 28
182 226 228 28
183 226 229 28
184 226 230 28
185 231 232 28
186 231 233 28
187 231 234 28
188 231 235 28
189 236 237 28
190 236 238 28
191 236 239 28
192 236 240 28
193 241 242 28
194 241 243 28
195 241 244 28
196 241 245 28
197 246 247 28
198 246 248 28
199 246 249 28
200 246 250 28
201 251 252 28
202 251 253 28
203 251 254 28
204 251 255 28
205 256 257 28
206 256 258 28
207 256 259 28
208 256 260 28
209 261 262 28
210 261 263 28
211 261 264 28
212 261 265 28
213 266 267 28
214 266 268 28
215 266 269 28
216 266 270 28
217 271 272 28
218 271 273 28
219 271 274 28
220 271 275 28
221 276 277 28
222 276 278 28
223 276 279 28
224 276 280 28
225 281 282 28
226 281 283 28
227 281 284 28
228 281 285 28
229 286 287 28
230 286 288 28
231 286 289 28
232 286 290 28
233 291 292 28
234 291 293 28
235 291 294 28
236 291 295 28
237 296 297 28
238 296 298 28
239 296 299 28
240 296 300 28
241 301 302 28
242 301 303 28
243 301 304 28
244 301 305 28
245 306 307 28
246 306 308 28
247 306 309 28
248 306 310 28
249 311 312 28
250 311 313 28
251 311 314 28
252 311 315 28
253 316 317 28
254 316 318 28
255 316 319 28
256 316 320 28
257 321 322 28
258 321 323 28
259 321 324 28
260 321 325 28
261 326 327 28
262 326 328 28
263 326 329 28
264 326 330 28
265 331 332 28
266 331 333 28
267 331 334 28
268 331 335 28
269 336 337 28
270 336 338 28
271 336 339 28
272 336 340 28
273 341 342 28
274 341 343 28
275 341 344 28
276 341 345 28
277 346 347 28
278 346 348 28
279 346 349 28
280 346 350 28
281 351 352 28
282 351 353 28
283 351 354 28
284 351 355 28
285 356 357 28
286 356 358 28
287 356 359 28
288 356 360 28
289 361 362 28
290 361 363 28
291 361 364 28
292 361 365 28
293 366 367 28
294 366 368 28
295 366 369 28
296 366 370 28
297 371 372 28
298 371 373 28
299 371 374 28
300 371 375 28
301 376 377 28
302 376 378 28
303 376 379 28
304 376 380 28
305 381 382 28
306 381 383 28
307 381 384 28
308 381 385 28
309 386 387 28
310 386 388 28
311 386 389 28
312 386 390 28
313 391 392 28
314 391 393 28
315 391 394 28
316 391 395 28
317 396 397 28
318 396 398 28
319 396 399 28
320 396 400 28
321 401 402 28
322 401 403 28
323 401 404 28
324 401 405 28
325 406 407 28
326 406 408 28
327 406 409 28
328 406 410 28
329 411 412 28
330 411 413 28
331 411 414 28
332 411 415 28
333 416 417 28
334 416 418 28
335 416 419 28
336 416 420 28
337 421 422 28
338 421 423 28
339 421 424 28
340 421 425 28
341 426 427 28
342 426 428 28
343 426 429 28
344 426 430 28
345 431 432 28
346 431 433 28
347 431 434 28
348 431 435 28
349 436 437 28
350 436 438 28
351 436 439 28
352 436 440 28
353 441 442 28
354 441 443 28
355 441 444 28
356 441 445 28
357 446 447 28
358 446 448 28
359 446 449 28
360 446 450 28
361 451 452 28
362 451 453 28
363 451 454 28
364 451 455 28
365 456 457 28
366 456 458 28
367 456 459 28
368 456 460 28
369 461 462 28
370 461 463 28
371 461 464 28
372 461 465 28
373 466 467 28
374 466 468 28
375 466 469 28
376 466 470 28
377 471 472 28
378 471 473 28
379 471 474 28
380 471 475 28
381 476 477 28
382 476 478 28
383 476 479 28
384 476 480 28
385 481 482 28
386 481 483 28
387 481 484 28
388 481 485 28
389 486 487 28
390 486 488 28
391 486 489 28
392 486 490 28
393 491 492 28
394 491 493 28
395 491 494 28
396 491 495 28
397 496 497 28
398 496 498 28
399 496 499 28
400 496 500 28
401 501 502 28
402 501 503 28
403 501 504 28
404 501 505 28
405 506 507 28
406 506 508 28
407 506 509 28
408 506 510 28
409 511 512 28
410 511 513 28
411 511 514 28
412 511 515 28
413 516 517 28
414 516 518 28
415 516 519 28
416 516 520 28
417 521 522 28
418 521 523 28
419 521 524 28
420 521 525 28
421 526 527 28
422 526 528 28
423 526 529 28
424 526 530 28
425 531 532 28
426 531 533 28
427 531 534 28
428 531 535 28
429 536 537 28
430 536 538 28
431 536 539 28
432 536 540 28
433 541 542 28
434 541 543 28
435 541 544 28
436 541 545 28
437 546 547 28
438 546 548 28
439 546 549 28
440 546 550 28
441 551 552 28
442 551 553 28
443 551 554 28
444 551 555 28
445 556 557 28
446 556 558 28
447 556 559 28
448 556 560 28
449 561 562 28
450 561 563 28
451 561 564 28
452 561 565 28
453 566 567 28
454 566 568 28
455 566 569 28
456 566 570 28
457 571 572 28
458 571 573 28
459 571 574 28
460 571 575 28
461 576 577 28
462 576 578 28
463 576 579 28
464 576 580 28
465 581 582 28
466 581 583 28
467 581 584 28
468 581 585 28
469 586 587 28
470 586 588 28
471 586 589 28
472 586 590 28
473 591 592 28
474 591 593 28
475 591 594 28
476 591 595 28
477 596 597 28
478 596 598 28
479 596 599 28
480 596 600 28
481 601 602 28
482 601 603 28
483 601 604 28
484 601 605 28
485 606 607 28
486 606 608 28
487 606 609 28
488 606 610 28
489 611 612 28
490 611 613 28
491 611 614 28
492 611 615 28
493 616 617 28
494 616 618 28
495 616 619 28
496 616 620 28
497 621 622 28
498 621 623 28
499 621 624 28
500 621 625 28
501 626 627 28
502 626 628 28
503 626 629 28
504 626 630 28
505 631 632 28
506 631 633 28
507 631 634 28
508 631 635 28
509 636 637 28
510 636 638 28
511 636 639 28
512 636 640 28
513 641 642 28
514 641 643 28
515 641 644 28
516 641 645 28
517 646 647 28
518 646 648 28
519 646 649 28
520 646 650 28
521 651 652 28
522 651 653 28
523 651 654 28
524 651 655 28
525 656 657 28
526 656 658 28
527 656 659 28
528 656 660 28
529 661 662 28
530 661 663 28
531 661 664 28
532 661 665 28
533 666 667 28
534 666 668 28
535 666 669 28
536 666 670 28
537 671 672 28
538 671 673 28
539 671 674 28
540 671 675 28
541 676 677 28
542 676 678 28
543 676 679 28
544 676 680 28
545 681 682 28
546 681 683 28
547 681 684 28
548 681 685 28
549 686 687 28
550 686 688 28
551 686 689 28
552 686 690 28
553 691 692 28
554 691 693 28
555 691 694 28
556 691 695 28
557 696 697 28
558 696 698 28
559 696 699 28
560 696 700 28
561 701 702 28
562 701 703 28
563 701 704 28
564 701 705 28
565 706 707 28
566 706 708 28
567 706 709 28
568 706 710 28
569 711 712 28
570 711 713 28
571 711 714 28
572 711 715 28
573 716 717 28
574 716 718 28
575 716 719 28
576 716 720 28
577 721 722 28
578 721 723 28
579 721 724 28
580 721 725 28
581 726 727 28
582 726 728 28
583 726 729 28
584 726 730 28
585 731 732 28
586 731 733 28
587 731 734 28
588 731 735 28
589 736 737 28
590 736 738 28
591 736 739 28
592 736 740 28
593 741 742 28
594 741 743 28
595 741 744 28
596 741 745 28
597 746 747 28
598 746 748 28
599 746 749 28
600 746 750 28
601 751 752 28
602 751 753 28
603 751 754 28
604 751 755 28
605 756 757 28
606 756 758 28
607 756 759 28
608 756 760 28
609 761 762 28
610 761 763 28
611 761 764 28
612 761 765 28
613 766 767 28
614 766 768 28
615 766 769 28
616 766 770 28
617 771 772 28
618 771 773 28
619 771 774 28
620 771 775 28
621 776 777 28
622 776 778 28
623 776 779 28
624 776 780 28
625 781 782 28
626 781 783 28
627 781 784 28
628 781 785 28
629 786 787 28
630 786 788 28
631 786 789 28
632 786 790 28
633 791 792 28
634 791 793 28
635 791 794 28
636 791 795 28
637 796 797 28
638 796 798 28
639 796 799 28
640 796 800 28
641 801 802 28
642 801 803 28
643 801 804 28
644 801 805 28
645 806 807 28
646 806 808 28
647 806 809 28
648 806 810 28
649 811 812 28
650 811 813 28
651 811 814 28
652 811 815 28
653 816 817 28
654 816 818 28
655 816 819 28
656 816 820 28
657 821 822 28
658 821 823 28
659 821 824 28
660 821 825 28
661 826 827 28
662 826 828 28
663 826 829 28
664 826 830 28
665 831 832 28
666 831 833 28
667 831 834 28
668 831 835 28
669 836 837 28
670 836 838 28
671 836 839 28
672 836 840 28
673 841 842 28
674 841 843 28
675 841 844 28
676 841 845 28
677 846 847 28
678 846 848 28
679 846 849 28
680 846 850 28
681 851 852 28
682 851 853 28
683 851 854 28
684 851 855 28
685 856 857 28
686 856 858 28
687 856 859 28
688 856 860 28
689 861 862 28
690 861 863 28
691 861 864 28
692 861 865 28
693 866 867 28
694 866 868 28
695 866 869 28
696 866 870 28
697 871 872 28
698 871 873 28
699 871 874 28
700 871 875 28
701 876 877 28
702 876 878 28
703 876 879 28
704 876 880 28
705 881 882 28
706 881 883 28
707 881 884 28
708 881 885 28
709 886 887 28
710 886 888 28
711 886 889 28
712 886 890 28
713 891 892 28
714 891 893 28
715 891 894 28
716 891 895 28
717 896 897 28
718 896 898 28
719 896 899 28
720 896 900 28
721 901 902 28
722 901 903 28
723 901 904 28
724 901 905 28
725 906 907 28
726 906 908 28
727 906 909 28
728 906 910 28
729 911 912 28
730 911 913 28
731 911 914 28
732 911 915 28
733 916 917 28
734 916 918 28
735 916 919 28
736 916 920 28
737 921 922 28
738 921 923 28
739 921 924 28
740 921 925 28
741 926 927 28
742 926 928 28
743 926 929 28
744 926 930 28
745 931 932 28
746 931 933 28
747 931 934 28
748 931 935 28
749 936 937 28
750 936 938 28
751 936 939 28
752 936 940 28
753 941 942 28
754 941 943 28
755 941 944 28
756 941 945 28
757 946 947 28
758 946 948 28
759 946 949 28
760 946 950 28
761 951 952 28
762 951 953 28
763 951 954 28
764 951 955 28
765 956 957 28
766 956 958 28
767 956 959 28
768 956 960 28
769 961 962 28
770 961 963 28
771 961 964 28
772 961 965 28
773 966 967 28
774 966 968 28
775 966 969 28
776 966 970 28
777 971 972 28
778 971 973 28
779 971 974 28
780 971 975 28
781 976 977 28
782 976 978 28
783 976 979 28
784 976 980 28
785 981 982 28
786 981 983 28
787 981 984 28
788 981 985 28
789 986 987 28
790 986 988 28
791 986 989 28
792 986 990 28
793 991 992 28
794 991 993 28
795 991 994 28
796 991 995 28
797 996 997 28
798 996 998 28
799 996 999 28
800 996 1000 28
801 1001 1002 28
802 1001 1003 28
803 1001 1004 28
804 1001 1005 28
805 1006 1007 28
806 1006 1008 28
807 1006 1009 28
808 1006 1010 28
809 1011 1012 28
810 1011 1013 28
811 1011 1014 28
812 1011 1015 28
813 1016 1017 28
814 1016 1018 28
815 1016 1019 28
816 1016 1020 28
817 1021 1022 28
818 1021 1023 28
819 1021 1024 28
820 1021 1025 28
821 1026 1027 28
822 1026 1028 28
823 1026 1029 28
824 1026 1030 28
825 1031 1032 28
826 1031 1033 28
827 1031 1034 28
828 1031 1035 28
829 1036 1037 28
830 1036 1038 28
831 1036 1039 28
832 1036 1040 28
833 1041 1042 28
834 1041 1043 28
835 1041 1044 28
836 1041 1045 28
837 1046 1047 28
838 1046 1048 28
839 1046 1049 28
840 1046 1050 28
841 1051 1052 28
842 1051 1053 28
843 1051 1054 28
844 1051 1055 28
845 1056 1057 28
846 1056 1058 28
847 1056 1059 28
848 1056 1060 28
849 1061 1062 28
850 1061 1063 28
851 1061 1064 28
852 1061 1065 28
853 1066 1067 28
854 1066 1068 28
855 1066 1069 28
856 1066 1070 28
857 1071 1072 28
858 1071 1073 28
859 1071 1074 28
860 1071 1075 28
861 1076 1077 28
862 1076 1078 28
863 1076 1079 28
864 1076 1080 28
865 1081 1082 28
866 1081 1083 28
867 1081 1084 28
868 1081 1085 28
869 1086 1087 28
870 1086 1088 28
871 1086 1089 28
872 1086 1090 28
873 1091 1092 28
874 1091 1093 28
875 1091 1094 28
876 1091 1095 28
877 1096 1097 28
878 1096 1098 28
879 1096 1099 28
880 1096 1100 28
881 1101 1102 28
882 1101 1103 28
883 1101 1104 28
884 1101 1105 28
885 1106 1107 28
886 1106 1108 28
887 1106 1109 28
888 1106 1110 28
889 1111 1112 28
890 1111 1113 28
891 1111 1114 28
892 1111 1115 28
893 1116 1117 28
894 1116 1118 28
895 1116 1119 28
896 1116 1120 28
897 1121 1122 28
898 1121 1123 28
899 1121 1124 28
900 1121 1125 28
901 1126 1127 28
902 1126 1128 28
903 1126 1129 28
904 1126 1130 28
905 1131 1132 28
906 1131 1133 28
907 1131 1134 28
908 1131 1135 28
909 1136 1137 28
910 1136 1138 28
911 1136 1139 28
912 1136 1140 28
913 1141 1142 28
914 1141 1143 28
915 1141 1144 28
916 1141 1145 28
917 1146 1147 28
918 1146 1148 28
919 1146 1149 28
920 1146 1150 28
921 1151 1152 28
922 1151 1153 28
923 1151 1154 28
924 1151 1155 28
925 1156 1157 28
926 1156 1158 28
927 1156 1159 28
928 1156 1160 28
929 1161 1162 28
930 1161 1163 28
931 1161 1164 28
932 1161 1165 28
933 1166 1167 28
934 1166 1168 28
935 1166 1169 28
936 1166 1170 28
937 1171 1172 28
938 1171 1173 28
939 1171 1174 28
940 1171 1175 28
941 1176 1177 28
942 1176 1178 28
943 1176 1179 28
944 1176 1180 28
945 1181 1182 28
946 1181 1183 28
947 1181 1184 28
948 1181 1185 28
949 1186 1187 28
950 1186 1188 28
951 1186 1189 28
952 1186 1190 28
953 1191 1192 28
954 1191 1193 28
955 1191 1194 28
956 1191 1195 28
957 1196 1197 28
958 1196 1198 28
959 1196 1199 28
960 1196 1200 28
961 1201 1202 28
962 1201 1203 28
963 1201 1204 28
964 1201 1205 28
965 1206 1207 28
966 1206 1208 28
967 1206 1209 28
968 1206 1210 28
969 1211 1212 28
970 1211 1213 28
971 1211 1214 28
972 1211 1215 28
973 1216 1217 28
974 1216 1218 28
975 1216 1219 28
976 1216 1220 28
977 1221 1222 28
978 1221 1223 28
979 1221 1224 28
980 1221 1225 28
981 1226 1227 28
982 1226 1228 28
983 1226 1229 28
984 1226 1230 28
985 1231 1232 28
986 1231 1233 28
987 1231 1234 28
988 1231 1235 28
989 1236 1237 28
990 1236 1238 28
991 1236 1239 28
992 1236 1240 28
993 1241 1242 28
994 1241 1243 28
995 1241 1244 28
996 1241 1245 28
997 1246 1247 28
998 1246 1248 28
999 1246 1249 28
1000 1246 1250 28
1001 1251 1252 28
1002 1251 1253 28
1003 1251 1254 28
1004 1251 1255 28
1005 1256 1257 28
1006 1256 1258 28
1007 1256 1259 28
1008 1256 1260 28
1009 1261 1262 28
1010 1261 1263 28
1011 1261 1264 28
1012 1261 1265 28
1013 1266 1267 28
1014 1266 1268 28
1015 1266 1269 28
1016 1266 1270 28
1017 1271 1272 28
1018 1271 1273 28
1019 1271 1274 28
1020 1271 1275 28
1021 1276 1277 28
1022 1276 1278 28
1023 1276 1279 28
1024 1276 1280 28
1025 1281 1282 28
1026 1281 1283 28
1027 1281 1284 28
1028 1281 1285 28
1029 1286 1287 28
1030 1286 1288 28
1031 1286 1289 28
1032 1286 1290 28
1033 1291 1292 28
1034 1291 1293 28
1035 1291 1294 28
1036 1291 1295 28
1037 1296 1297 28
1038 1296 1298 28
1039 1296 1299 28
1040 1296 1300 28
1041 1301 1302 28
1042 1301 1303 28
1043 1301 1304 28
1044 1301 1305 28
1045 1306 1307 28
1046 1306 1308 28
1047 1306 1309 28
1048 1306 1310 28
1049 1311 1312 28
1050 1311 1313 28
1051 1311 1314 28
1052 1311 1315 28
1053 1316 1317 28
1054 1316 1318 28
1055 1316 1319 28
1056 1316 1320 28
1057 1321 1322 28
1058 1321 1323 28
1059 1321 1324 28
1060 1321 1325 28
1061 1326 1327 28
1062 1326 1328 28
1063 1326 1329 28
1064 1326 1330 28
1065 1331 1332 28
1066 1331 1333 28
1067 1331 1334 28
1068 1331 1335 28
1069 1336 1337 28
1070 1336 1338 28
1071 1336 1339 28
1072 1336 1340 28
1073 1341 1342 28
1074 1341 1343 28
1075 1341 1344 28
1076 1341 1345 28
1077 1346 1347 28
1078 1346 1348 28
1079 1346 1349 28
1080 1346 1350 28
1081 1351 1352 28
1082 1351 1353 28
1083 1351 1354 28
1084 1351 1355 28
1085 1356 1357 28
1086 1356 1358 28
1087 1356 1359 28
1088 1356 1360 28
1089 1361 1362 28
1090 1361 1363 28
1091 1361 1364 28
1092 1361 1365 28
1093 1366 1367 28
1094 1366 1368 28
1095 1366 1369 28
1096 1366 1370 28
1097 1371 1372 28
1098 1371 1373 28
1099 1371 1374 28
1100 1371 1375 28
1101 1376 1377 28
1102 1376 1378 28
1103 1376 1379 28
1104 1376 1380 28
1105 1381 1382 28
1106 1381 1383 28
1107 1381 1384 28
1108 1381 1385 28
1109 1386 1387 28
1110 1386 1388 28
1111 1386 1389 28
1112 1386 1390 28
1113 1391 1392 28
1114 1391 1393 28
1115 1391 1394 28
1116 1391 1395 28
1117 1396 1397 28
1118 1396 1398 28
1119 1396 1399 28
1120 1396 1400 28
1121 1401 1402 28
1122 1401 1403 28
1123 1401 1404 28
1124 1401 1405 28
1125 1406 1407 28
1126 1406 1408 28
1127 1406 1409 28
1128 1406 1410 28
1129 1411 1412 28
1130 1411 1413 28
1131 1411 1414 28
1132 1411 1415 28
1133 1416 1417 28
1134 1416 1418 28
1135 1416 1419 28
1136 1416 1420 28
1137 1421 1422 28
1138 1421 1423 28
1139 1421 1424 28
1140 1421 1425 28
1141 1426 1427 28
1142 1426 1428 28
1143 1426 1429 28
1144 1426 1430 28
1145 1431 1432 28
1146 1431 1433 28
1147 1431 1434 28
1148 1431 1435 28
1149 1436 1437 28
1150 1436 1438 28
1151 1436 1439 28
1152 1436 1440 28
1153 1441 1442 28
1154 1441 1443 28
1155 1441 1444 28
1156 1441 1445 28
1157 1446 1447 28
1158 1446 1448 28
1159 1446 1449 28
1160 1446 1450 28
1161 1451 1452 28
1162 1451 1453 28
1163 1451 1454 28
1164 1451 1455 28
1165 1456 1457 28
1166 1456 1458 28
1167 1456 1459 28
1168 1456 1460 28
1169 1461 1462 28
1170 1461 1463 28
1171 1461 1464 28
1172 1461 1465 28
1173 1466 1467 28
1174 1466 1468 28
1175 1466 1469 28
1176 1466 1470 28
1177 1471 1472 28
1178 1471 1473 28
1179 1471 1474 28
1180 1471 1475 28
1181 1476 1477 28
1182 1476 1478 28
1183 1476 1479 28
1184 1476 1480 28
1185 1481 1482 28
1186 1481 1483 28
1187 1481 1484 28
1188 1481 1485 28
1189 1486 1487 28
1190 1486 1488 28
1191 1486 1489 28
1192 1486 1490 28
1193 1491 1492 28
1194 1491 1493 28
1195 1491 1494 28
1196 1491 1495 28
1197 1496 1497 28
1198 1496 1498 28
1199 1496 1499 28
1200 1496 1500 28
1201 1501 1502 28
1202 1501 1503 28
1203 1501 1504 28
1204 1501 1505 28
1205 1506 1507 28
1206 1506 1508 28
1207 1506 1509 28
1208 1506 1510 28
1209 1511 1512 28
1210 1511 1513 28
1211 1511 1514 28
1212 1511 1515 28
1213 1516 1517 28
1214 1516 1518 28
1215 1516 1519 28
1216 1516 1520 28
1217 1521 1522 28
1218 1521 1523 28
1219 1521 1524 28
1220 1521 1525 28
1221 1526 1527 28
1222 1526 1528 28
1223 1526 1529 28
1224 1526 1530 28
1225 1531 1532 28
1226 1531 1533 28
1227 1531 1534 28
1228 1531 1535 28
1229 1536 1537 28
1230 1536 1538 28
1231 1536 1539 28
1232 1536 1540 28
1233 1541 1542 28
1234 1541 1543 28
1235 1541 1544 28
1236 1541 1545 28
1237 1546 1547 28
1238 1546 1548 28
1239 1546 1549 28
1240 1546 1550 28
1241 1551 1552 28
1242 1551 1553 28
1243 1551 1554 28
1244 1551 1555 28
1245 1556 1557 28
1246 1556 1558 28
1247 1556 1559 28
1248 1556 1560 28
1249 1561 1562 28
1250 1561 1563 28
1251 1561 1564 28
1252 1561 1565 28
1253 1566 1567 28
1254 1566 1568 28
1255 1566 1569 28
1256 1566 1570 28
1257 1571 1572 28
1258 1571 1573 28
1259 1571 1574 28
1260 1571 1575 28
1261 1576 1577 28
1262 1576 1578 28
1263 1576 1579 28
1264 1576 1580 28
1265 1581 1582 28
1266 1581 1583 28
1267 1581 1584 28
1268 1581 1585 28
1269 1586 1587 28
1270 1586 1588 28
1271 1586 1589 28
1272 1586 1590 28
1273 1591 1592 28
1274 1591 1593 28
1275 1591 1594 28
1276 1591 1595 28
1277 1596 1597 28
1278 1596 1598 28
1279 1596 1599 28
1280 1596 1600 28
1281 1601 1602 28
1282 1601 1603 28
1283 1601 1604 28
1284 1601 1605 28
1285 1606 1607 28
1286 1606 1608 28
1287 1606 1609 28
1288 1606 1610 28
1289 1611 1612 28
1290 1611 1613 28
1291 1611 1614 28
1292 1611 1615 28
1293 1616 1617 28
1294 1616 1618 28
1295 1616 1619 28
1296 1616 1620 28
1297 1621 1622 28
1298 1621 1623 28
1299 1621 1624 28
1300 1621 1625 28
1301 1626 1627 28
1302 1626 1628 28
1303 1626 1629 28
1304 1626 1630 28
1305 1631 1632 28
1306 1631 1633 28
1307 1631 1634 28
1308 1631 1635 28
1309 1636 1637 28
1310 1636 1638 28
1311 1636 1639 28
1312 1636 1640 28
1313 1641 1642 28
1314 1641 1643 28
1315 1641 1644 28
1316 1641 1645 28
1317 1646 1647 28
1318 1646 1648 28
1319 1646 1649 28
1320 1646 1650 28
1321 1651 1652 28
1322 1651 1653 28
1323 1651 1654 28
1324 1651 1655 28
1325 1656 1657 28
1326 1656 1658 28
1327 1656 1659 28
1328 1656 1660 28
1329 1661 1662 28
1330 1661 1663 28
1331 1661 1664 28
1332 1661 1665 28
1333 1666 1667 28
1334 1666 1668 28
1335 1666 1669 28
1336 1666 1670 28
1337 1671 1672 28
1338 1671 1673 28
1339 1671 1674 28
1340 1671 1675 28
1341 1676 1677 28
1342 1676 1678 28
1343 1676 1679 28
1344 1676 1680 28
1345 1681 1682 28
1346 1681 1683 28
1347 1681 1684 28
1348 1681 1685 28
1349 1686 1687 28
1350 1686 1688 28
1351 1686 1689 28
1352 1686 1690 28
1353 1691 1692 28
1354 1691 1693 28
1355 1691 1694 28
1356 1691 1695 28
1357 1696 1697 28
1358 1696 1698 28
1359 1696 1699 28
1360 1696 1700 28
1361 1701 1702 28
1362 1701 1703 28
1363 1701 1704 28
1364 1701 1705 28
1365 1706 1707 28
1366 1706 1708 28
1367 1706 1709 28
1368 1706 1710 28
1369 1711 1712 28
1370 1711 1713 28
1371 1711 1714 28
1372 1711 1715 28
1373 1716 1717 28
1374 1716 1718 28
1375 1716 1719 28
1376 1716 1720 28
1377 1721 1722 28
1378 1721 1723 28
1379 1721 1724 28
1380 1721 1725 28
1381 1726 1727 28
1382 1726 1728 28
1383 1726 1729 28
1384 1726 1730 28
1385 1731 1732 28
1386 1731 1733 28
1387 1731 1734 28
1388 1731 1735 28
1389 1736 1737 28
1390 1736 1738 28
1391 1736 1739 28
1392 1736 1740 28
1393 1741 1742 28
1394 1741 1743 28
1395 1741 1744 28
1396 1741 1745 28
1397 1746 1747 28
1398 1746 1748 28
1399 1746 1749 28
1400 1746 1750 28
1401 1751 1752 28
1402 1751 1753 28
1403 1751 1754 28
1404 1751 1755 28
1405 1756 1757 28
1406 1756 1758 28
1407 1756 1759 28
1408 1756 1760 28
1409 1761 1762 28
1410 1761 1763 28
1411 1761 1764 28
1412 1761 1765 28
1413 1766 1767 28
1414 1766 1768 28
1415 1766 1769 28
1416 1766 1770 28
1417 1771 1772 28
1418 1771 1773 28
1419 1771 1774 28
1420 1771 1775 28
1421 1776 1777 28
1422 1776 1778 28
1423 1776 1779 28
1424 1776 1780 28
1425 1781 1782 28
1426 1781 1783 28
1427 1781 1784 28
1428 1781 1785 28
1429 1786 1787 28
1430 1786 1788 28
1431 1786 1789 28
1432 1786 1790 28
1433 1791 1792 28
1434 1791 1793 28
1435 1791 1794 28
1436 1791 1795 28
1437 1796 1797 28
1438 1796 1798 28
1439 1796 1799 28
1440 1796 1800 28
1441 1801 1802 28
1442 1801 1803 28
1443 1801 1804 28
1444 1801 1805 28
1445 1806 1807 28
1446 1806 1808 28
1447 1806 1809 28
1448 1806 1810 28
1449 1811 1812 28
1450 1811 1813 28
1451 1811 1814 28
1452 1811 1815 28
1453 1816 1817 28
1454 1816 1818 28
1455 1816 1819 28
1456 1816 1820 28
1457 1821 1822 28
1458 1821 1823 28
1459 1821 1824 28
1460 1821 1825 28
1461 1826 1827 28
1462 1826 1828 28
1463 1826 1829 28
1464 1826 1830 28
1465 1831 1832 28
1466 1831 1833 28
1467 1831 1834 28
1468 1831 1835 28
1469 1836 1837 28
1470 1836 1838 28
1471 1836 1839 28
1472 1836 1840 28
1473 1841 1842 28
1474 1841 1843 28
1475 1841 1844 28
1476 1841 1845 28
1477 1846 1847 28
1478 1846 1848 28
1479 1846 1849 28
1480 1846 1850 28
1481 1851 1852 28
1482 1851 1853 28
1483 1851 1854 28
1484 1851 1855 28
1485 1856 1857 28
1486 1856 1858 28
1487 1856 1859 28
1488 1856 1860 28
1489 1861 1862 28
1490 1861 1863 28
1491 1861 1864 28
1492 1861 1865 28
1493 1866 1867 28
1494 1866 1868 28
1495 1866 1869 28
1496 1866 1870 28
1497 1871 1872 28
1498 1871 1873 28
1499 1871 1874 28
1500 1871 1875 28
1501 1876 1877 28
1502 1876 1878 28
1503 1876 1879 28
1504 1876 1880 28
1505 1881 1882 28
1506 1881 1883 28
1507 1881 1884 28
1508 1881 1885 28
1509 1886 1887 28
1510 1886 1888 28
1511 1886 1889 28
1512 1886 1890 28
1513 1891 1892 28
1514 1891 1893 28
1515 1891 1894 28
1516 1891 1895 28
1517 1896 1897 28
1518 1896 1898 28
1519 1896 1899 28
1520 1896 1900 28
1521 1901 1902 28
1522 1901 1903 28
1523 1901 1904 28
1524 1901 1905 28
1525 1906 1907 28
1526 1906 1908 28
1527 1906 1909 28
1528 1906 1910 28
1529 1911 1912 28
1530 1911 1913 28
1531 1911 1914 28
1532 1911 1915 28
1533 1916 1917 28
1534 1916 1918 28
1535 1916 1919 28
1536 1916 1920 28
1537 1921 1922 28
1538 1921 1923 28
1539 1921 1924 28
1540 1921 1925 28
1541 1926 1927 28
1542 1926 1928 28
1543 1926 1929 28
1544 1926 1930 28
1545 1931 1932 28
1546 1931 1933 28
1547 1931 1934 28
1548 1931 1935 28
1549 1936 1937 28
1550 1936 1938 28
1551 1936 1939 28
1552 1936 1940 28
1553 1941 1942 28
1554 1941 1943 28
1555 1941 1944 28
1556 1941 1945 28
1557 1946 1947 28
1558 1946 1948 28
1559 1946 1949 28
1560 1946 1950 28
1561 1951 1952 28
1562 1951 1953 28
1563 1951 1954 28
1564 1951 1955 28
1565 1956 1957 28
1566 1956 1958 28
1567 1956 1959 28
1568 1956 1960 28
1569 1961 1962 28
1570 1961 1963 28
1571 1961 1964 28
1572 1961 1965 28
1573 1966 1967 28
1574 1966 1968 28
1575 1966 1969 28
1576 1966 1970 28
1577 1971 1972 28
1578 1971 1973 28
1579 1971 1974 28
1580 1971 1975 28
1581 1976 1977 28
1582 1976 1978 28
1583 1976 1979 28
1584 1976 1980 28
1585 1981 1982 28
1586 1981 1983 28
1587 1981 1984 28
1588 1981 1985 28
1589 1986 1987 28
1590 1986 1988 28
1591 1986 1989 28
1592 1986 1990 28
1593 1991 1992 28
1594 1991 1993 28
1595 1991 1994 28
1596 1991 1995 28
1597 1996 1997 28
1598 1996 1998 28
1599 1996 1999 28
1600 1996 2000 28
1601 2001 2002 28
1602 2001 2003 28
1603 2001 2004 28
1604 2001 2005 28
1605 2006 2007 28
1606 2006 2008 28
1607 2006 2009 28
1608 2006 2010 28
1609 2011 2012 28
1610 2011 2013 28
1611 2011 2014 28
1612 2011 2015 28
1613 2016 2017 28
1614 2016 2018 28
1615 2016 2019 28
1616 2016 2020 28
1617 2021 2022 28
1618 2021 2023 28
1619 2021 2024 28
1620 2021 2025 28
1621 2026 2027 28
1622 2026 2028 28
1623 2026 2029 28
1624 2026 2030 28
1625 2031 2032 28
1626 2031 2033 28
1627 2031 2034 28
1628 2031 2035 28
1629 2036 2037 28
1630 2036 2038 28
1631 2036 2039 28
1632 2036 2040 28
1633 2041 2042 28
1634 2041 2043 28
1635 2041 2044 28
1636 2041 2045 28
1637 2046 2047 28
1638 2046 2048 28
1639 2046 2049 28
1640 2046 2050 28
1641 2051 2052 28
1642 2051 2053 28
1643 2051 2054 28
1644 2051 2055 28
1645 2056 2057 28
1646 2056 2058 28
1647 2056 2059 28
1648 2056 2060 28
1649 2061 2062 28
1650 2061 2063 28
1651 2061 2064 28
1652 2061 2065 28
1653 2066 2067 28
1654 2066 2068 28
1655 2066 2069 28
1656 2066 2070 28
1657 2071 2072 28
1658 2071 2073 28
1659 2071 2074 28
1660 2071 2075 28
1661 2076 2077 28
1662 2076 2078 28
1663 2076 2079 28
1664 2076 2080 28
1665 2081 2082 28
1666 2081 2083 28
1667 2081 2084 28
1668 2081 2085 28
1669 2086 2087 28
1670 2086 2088 28
1671 2086 2089 28
1672 2086 2090 28
1673 2091 2092 28
1674 2091 2093 28
1675 2091 2094 28
1676 2091 2095 28
1677 2096 2097 28
1678 2096 2098 28
1679 2096 2099 28
1680 2096 2100 28
1681 2101 2102 28
1682 2101 2103 28
1683 2101 2104 28
1684 2101 2105 28
1685 2106 2107 28
1686 2106 2108 28
1687 2106 2109 28
1688 2106 2110 28
1689 2111 2112 28
1690 2111 2113 28
1691 2111 2114 28
1692 2111 2115 28
1693 2116 2117 28
1694 2116 2118 28
1695 2116 2119 28
1696 2116 2120 28
1697 2121 2122 28
1698 2121 2123 28
1699 2121 2124 28
1700 2121 2125 28
1701 2126 2127 28
1702 2126 2128 28
1703 2126 2129 28
1704 2126 2130 28
1705 2131 2132 28
1706 2131 2133 28
1707 2131 2134 28
1708 2131 2135 28
1709 2136 2137 28
1710 2136 2138 28
1711 2136 2139 28
1712 2136 2140 28
1713 2141 2142 28
1714 2141 2143 28
1715 2141 2144 28
1716 2141 2145 28
1717 2146 2147 28
1718 2146 2148 28
1719 2146 2149 28
1720 2146 2150 28
1721 2151 2152 28
1722 2151 2153 28
1723 2151 2154 28
1724 2151 2155 28
1725 2156 2157 28
1726 2156 2158 28
1727 2156 2159 28
1728 2156 2160 28
1729 2161 2162 28
1730 2161 2163 28
1731 2161 2164 28
1732 2161 2165 28
1733 2166 2167 28
1734 2166 2168 28
1735 2166 2169 28
1736 2166 2170 28
1737 2171 2172 28
1738 2171 2173 28
1739 2171 2174 28
1740 2171 2175 28
1741 2176 2177 28
1742 2176 2178 28
1743 2176 2179 28
1744 2176 2180 28
1745 2181 2182 28
1746 2181 2183 28
1747 2181 2184 28
1748 2181 2185 28
1749 2186 2187 28
1750 2186 2188 28
1751 2186 2189 28
1752 2186 2190 28
1753 2191 2192 28
1754 2191 2193 28
1755 2191 2194 28
1756 2191 2195 28
1757 2196 2197 28
1758 2196 2198 28
1759 2196 2199 28
1760 2196 2200 28
1761 2201 2202 28
1762 2201 2203 28
1763 2201 2204 28
1764 2201 2205 28
1765 2206 2207 28
1766 2206 2208 28
1767 2206 2209 28
1768 2206 2210 28
1769 2211 2212 28
1770 2211 2213 28
1771 2211 2214 28
1772 2211 2215 28
1773 2216 2217 28
1774 2216 2218 28
1775 2216 2219 28
1776 2216 2220 28
1777 2221 2222 28
1778 2221 2223 28
1779 2221 2224 28
1780 2221 2225 28
1781 2226 2227 28
1782 2226 2228 28
1783 2226 2229 28
1784 2226 2230 28
1785 2231 2232 28
1786 2231 2233 28
1787 2231 2234 28
1788 2231 2235 28
1789 2236 2237 28
1790 2236 2238 28
1791 2236 2239 28
1792 2236 2240 28
1793 2241 2242 28
1794 2241 2243 28
1795 2241 2244 28
1796 2241 2245 28
1797 2246 2247 28
1798 2246 2248 28
1799 2246 2249 28
1800 2246 2250 28
1801 2251 2252 28
1802 2251 2253 28
1803 2251 2254 28
1804 2251 2255 28
1805 2256 2257 28
1806 2256 2258 28
1807 2256 2259 28
1808 2256 2260 28
1809 2261 2262 28
1810 2261 2263 28
1811 2261 2264 28
1812 2261 2265 28
1813 2266 2267 28
1814 2266 2268 28
1815 2266 2269 28
1816 2266 2270 28
1817 2271 2272 28
1818 2271 2273 28
1819 2271 2274 28
1820 2271 2275 28
1821 2276 2277 28
1822 2276 2278 28
1823 2276 2279 28
1824 2276 2280 28
1825 2281 2282 28
1826 2281 2283 28
1827 2281 2284 28
1828 2281 2285 28
1829 2286 2287 28
1830 2286 2288 28
1831 2286 2289 28
1832 2286 2290 28
1833 2291 2292 28
1834 2291 2293 28
1835 2291 2294 28
1836 2291 2295 28
1837 2296 2297 28
1838 2296 2298 28
1839 2296 2299 28
1840 2296 2300 28
1841 2301 2302 28
1842 2301 2303 28
1843 2301 2304 28
1844 2301 2305 28
1845 2306 2307 28
1846 2306 2308 28
1847 2306 2309 28
1848 2306 2310 28
1849 2311 2312 28
1850 2311 2313 28
1851 2311 2314 28
1852 2311 2315 28
1853 2316 2317 28
1854 2316 2318 28
1855 2316 2319 28
1856 2316 2320 28
1857 2321 2322 28
1858 2321 2323 28
1859 2321 2324 28
1860 2321 2325 28
1861 2326 2327 28
1862 2326 2328 28
1863 2326 2329 28
1864 2326 2330 28
1865 2331 2332 28
1866 2331 2333 28
1867 2331 2334 28
1868 2331 2335 28
1869 2336 2337 28
1870 2336 2338 28
1871 2336 2339 28
1872 2336 2340 28
1873 2341 2342 28
1874 2341 2343 28
1875 2341 2344 28
1876 2341 2345 28
1877 2346 2347 28
1878 2346 2348 28
1879 2346 2349 28
1880 2346 2350 28
1881 2351 2352 28
1882 2351 2353 28
1883 2351 2354 28
1884 2351 2355 28
1885 2356 2357 28
1886 2356 2358 28
1887 2356 2359 28
1888 2356 2360 28
1889 2361 2362 28
1890 2361 2363 28
1891 2361 2364 28
1892 2361 2365 28
1893 2366 2367 28
1894 2366 2368 28
1895 2366 2369 28
1896 2366 2370 28
1897 2371 2372 28
1898 2371 2373 28
1899 2371 2374 28
1900 2371 2375 28
1901 2376 2377 28
1902 2376 2378 28
1903 2376 2379 28
1904 2376 2380 28
1905 2381 2382 28
1906 2381 2383 28
1907 2381 2384 28
1908 2381 2385 28
1909 2386 2387 28
1910 2386 2388 28
1911 2386 2389 28
1912 2386 2390 28
1913 2391 2392 28
1914 2391 2393 28
1915 2391 2394 28
1916 2391 2395 28
1917 2396 2397 28
1918 2396 2398 28
1919 2396 2399 28
1920 2396 2400 28
1921 2401 2402 28
1922 2401 2403 28
1923 2401 2404 28
1924 2401 2405 28
1925 2406 2407 28
1926 2406 2408 28
1927 2406 2409 28
1928 2406 2410 28
1929 2411 2412 28
1930 2411 2413 28
1931 2411 2414 28
1932 2411 2415 28
1933 2416 2417 28
1934 2416 2418 28
1935 2416 2419 28
1936 2416 2420 28
1937 2421 2422 28
1938 2421 2423 28
1939 2421 2424 28
1940 2421 2425 28
1941 2426 2427 28
1942 2426 2428 28
1943 2426 2429 28
1944 2426 2430 28
1945 2431 2432 28
1946 2431 2433 28
1947 2431 2434 28
1948 2431 2435 28
1949 2436 2437 28
1950 2436 2438 28
1951 2436 2439 28
1952 2436 2440 28
1953 2441 2442 28
1954 2441 2443 28
1955 2441 2444 28
1956 2441 2445 28
1957 2446 2447 28
1958 2446 2448 28
1959 2446 2449 28
1960 2446 2450 28
1961 2451 2452 28
1962 2451 2453 28
1963 2451 2454 28
1964 2451 2455 28
1965 2456 2457 28
1966 2456 2458 28
1967 2456 2459 28
1968 2456 2460 28
1969 2461 2462 28
1970 2461 2463 28
1971 2461 2464 28
1972 2461 2465 28
1973 2466 2467 28
1974 2466 2468 28
1975 2466 2469 28
1976 2466 2470 28
1977 2471 2472 28
1978 2471 2473 28
1979 2471 2474 28
1980 2471 2475 28
1981 2476 2477 28
1982 2476 2478 28
1983 2476 2479 28
1984 2476 2480 28
1985 2481 2482 28
1986 2481 2483 28
1987 2481 2484 28
1988 2481 2485 28
1989 2486 2487 28
1990 2486 2488 28
1991 2486 2489 28
1992 2486 2490 28
1993 2491 2492 28
1994 2491 2493 28
1995 2491 2494 28
1996 2491 2495 28
1997 2496 2497 28
1998 2496 2498 28
1999 2496 2499 28
2000 2496 2500 28
2001 2501 2502 28
2002 2501 2503 28
2003 2501 2504 28
2004 2501 2505 28
2005 2506 2507 28
2006 2506 2508 28
2007 2506 2509 28
2008 2506 2510 28
2009 2511 2512 28
2010 2511 2513 28
2011 2511 2514 28
2012 2511 2515 28
2013 2516 2517 28
2014 2516 2518 28
2015 2516 2519 28
2016 2516 2520 28
2017 2521 2522 28
2018 2521 2523 28
2019 2521 2524 28
2020 2521 2525 28
2021 2526 2527 28
2022 2526 2528 28
2023 2526 2529 28
2024 2526 2530 28
2025 2531 2532 28
2026 2531 2533 28
2027 2531 2534 28
2028 2531 2535 28
2029 2536 2537 28
2030 2536 2538 28
2031 2536 2539 28
2032 2536 2540 28
2033 2541 2542 28
2034 2541 2543 28
2035 2541 2544 28
2036 2541 2545 28
2037 2546 2547 28
2038 2546 2548 28
2039 2546 2549 28
2040 2546 2550 28
2041 2551 2552 28
2042 2551 2553 28
2043 2551 2554 28
2044 2551 2555 28
2045 2556 2557 28
2046 2556 2558 28
2047 2556 2559 28
2048 2556 2560 28
2049 2561 2562 28
2050 2561 2563 28
2051 2561 2564 28
2052 2561 2565 28
2053 2566 2567 28
2054 2566 2568 28
2055 2566 2569 28
2056 2566 2570 28
2057 2571 2572 28
2058 2571 2573 28
2059 2571 2574 28
2060 2571 2575 28
2061 2576 2577 28
2062 2576 2578 28
2063 2576 2579 28
2064 2576 2580 28
2065 2581 2582 28
2066 2581 2583 28
2067 2581 2584 28
2068 2581 2585 28
2069 2586 2587 28
2070 2586 2588 28
2071 2586 2589 28
2072 2586 2590 28
2073 2591 2592 28
2074 2591 2593 28
2075 2591 2594 28
2076 2591 2595 28
2077 2596 2597 28
2078 2596 2598 28
2079 2596 2599 28
2080 2596 2600 28
2081 2601 2602 28
2082 2601 2603 28
2083 2601 2604 28
2084 2601 2605 28
2085 2606 2607 28
2086 2606 2608 28
2087 2606 2609 28
2088 2606 2610 28
2089 2611 2612 28
2090 2611 2613 28
2091 2611 2614 28
2092 2611 2615 28
2093 2616 2617 28
2094 2616 2618 28
2095 2616 2619 28
2096 2616 2620 28
2097 2621 2622 28
2098 2621 2623 28
2099 2621 2624 28
2100 2621 2625 28
2101 2626 2627 28
2102 2626 2628 28
2103 2626 2629 28
2104 2626 2630 28
2105 2631 2632 28
2106 2631 2633 28
2107 2631 2634 28
2108 2631 2635 28
2109 2636 2637 28
2110 2636 2638 28
2111 2636 2639 28
2112 2636 2640 28
2113 2641 2642 28
2114 2641 2643 28
2115 2641 2644 28
2116 2641 2645 28
2117 2646 2647 28
2118 2646 2648 28
2119 2646 2649 28
2120 2646 2650 28
2121 2651 2652 28
2122 2651 2653 28
2123 2651 2654 28
2124 2651 2655 28
2125 2656 2657 28
2126 2656 2658 28
2127 2656 2659 28
2128 2656 2660 28
2129 2661 2662 28
2130 2661 2663 28
2131 2661 2664 28
2132 2661 2665 28
2133 2666 2667 28
2134 2666 2668 28
2135 2666 2669 28
2136 2666 2670 28
2137 2671 2672 28
2138 2671 2673 28
2139 2671 2674 28
2140 2671 2675 28
2141 2676 2677 28
2142 2676 2678 28
2143 2676 2679 28
2144 2676 2680 28
2145 2681 2682 28
2146 2681 2683 28
2147 2681 2684 28
2148 2681 2685 28
2149 2686 2687 28
2150 2686 2688 28
2151 2686 2689 28
2152 2686 2690 28
2153 2691 2692 28
2154 2691 2693 28
2155 2691 2694 28
2156 2691 2695 28
2157 2696 2697 28
2158 2696 2698 28
2159 2696 2699 28
2160 2696 2700 28
2161 2701 2702 28
2162 2701 2703 28
2163 2701 2704 28
2164 2701 2705 28
2165 2706 2707 28
2166 2706 2708 28
2167 2706 2709 28
2168 2706 2710 28
2169 2711 2712 28
2170 2711 2713 28
2171 2711 2714 28
2172 2711 2715 28
2173 2716 2717 28
2174 2716 2718 28
2175 2716 2719 28
2176 2716 2720 28
2177 2721 2722 28
2178 2721 2723 28
2179 2721 2724 28
2180 2721 2725 28
2181 2726 2727 28
2182 2726 2728 28
2183 2726 2729 28
2184 2726 2730 28
2185 2731 2732 28
2186 2731 2733 28
2187 2731 2734 28
2188 2731 2735 28
2189 2736 2737 28
2190 2736 2738 28
2191 2736 2739 28
2192 2736 2740 28
2193 2741 2742 28
2194 2741 2743 28
2195 2741 2744 28
2196 2741 2745 28
2197 2746 2747 28
2198 2746 2748 28
2199 2746 2749 28
2200 2746 2750 28
2201 2751 2752 28
2202 2751 2753 28
2203 2751 2754 28
2204 2751 2755 28
2205 2756 2757 28
2206 2756 2758 28
2207 2756 2759 28
2208 2756 2760 28
2209 2761 2762 28
2210 2761 2763 28
2211 2761 2764 28
2212 2761 2765 28
2213 2766 2767 28
2214 2766 2768 28
2215 2766 2769 28
2216 2766 2770 28
2217 2771 2772 28
2218 2771 2773 28
2219 2771 2774 28
2220 2771 2775 28
2221 2776 2777 28
2222 2776 2778 28
2223 2776 2779 28
2224 2776 2780 28
2225 2781 2782 28
2226 2781 2783 28
2227 2781 2784 28
2228 2781 2785 28
2229 2786 2787 28
2230 2786 2788 28
2231 2786 2789 28
2232 2786 2790 28
2233 2791 2792 28
2234 2791 2793 28
2235 2791 2794 28
2236 2791 2795 28
2237 2796 2797 28
2238 2796 2798 28
2239 2796 2799 28
2240 2796 2800 28
2241 2801 2802 28
2242 2801 2803 28
2243 2801 2804 28
2244 2801 2805 28
2245 2806 2807 28
2246 2806 2808 28
2247 2806 2809 28
2248 2806 2810 28
2249 2811 2812 28
2250 2811 2813 28
2251 2811 2814 28
2252 2811 2815 28
2253 2816 2817 28
2254 2816 2818 28
2255 2816 2819 28
2256 2816 2820 28
2257 2821 2822 28
2258 2821 2823 28
2259 2821 2824 28
2260 2821 2825 28
2261 2826 2827 28
2262 2826 2828 28
2263 2826 2829 28
2264 2826 2830 28
2265 2831 2832 28
2266 2831 2833 28
2267 2831 2834 28
2268 2831 2835 28
2269 2836 2837 28
2270 2836 2838 28
2271 2836 2839 28
2272 2836 2840 28
2273 2841 2842 28
2274 2841 2843 28
2275 2841 2844 28
2276 2841 2845 28
2277 2846 2847 28
2278 2846 2848 28
2279 2846 2849 28
2280 2846 2850 28
2281 2851 2852 28
2282 2851 2853 28
2283 2851 2854 28
2284 2851 2855 28
2285 2856 2857 28
2286 2856 2858 28
2287 2856 2859 28
2288 2856 2860 28
2289 2861 2862 28
2290 2861 2863 28
2291 2861 2864 28
2292 2861 2865 28
2293 2866 2867 28
2294 2866 2868 28
2295 2866 2869 28
2296 2866 2870 28
2297 2871 2872 28
2298 2871 2873 28
2299 2871 2874 28
2300 2871 2875 28
2301 2876 2877 28
2302 2876 2878 28
2303 2876 2879 28
2304 2876 2880 28
2305 2881 2882 28
2306 2881 2883 28
2307 2881 2884 28
2308 2881 2885 28
2309 2886 2887 28
2310 2886 2888 28
2311 2886 2889 28
2312 2886 2890 28
2313 2891 2892 28
2314 2891 2893 28
2315 2891 2894 28
2316 2891 2895 28
2317 2896 2897 28
2318 2896 2898 28
2319 2896 2899 28
2320 2896 2900 28
2321 2901 2902 28
2322 2901 2903 28
2323 2901 2904 28
2324 2901 2905 28
2325 2906 2907 28
2326 2906 2908 28
2327 2906 2909 28
2328 2906 2910 28
2329 2911 2912 28
2330 2911 2913 28
2331 2911 2914 28
2332 2911 2915 28
2333 2916 2917 28
2334 2916 2918 28
2335 2916 2919 28
2336 2916 2920 28
2337 2921 2922 28
2338 2921 2923 28
2339 2921 2924 28
2340 2921 2925 28
2341 2926 2927 28
2342 2926 2928 28
2343 2926 2929 28
2344 2926 2930 28
2345 2931 2932 28
2346 2931 2933 28
2347 2931 2934 28
2348 2931 2935 28
2349 2936 2937 28
2350 2936 2938 28
2351 2936 2939 28
2352 2936 2940 28
2353 2941 2942 28
2354 2941 2943 28
2355 2941 2944 28
2356 2941 2945 28
2357 2946 2947 28
2358 2946 2948 28
2359 2946 2949 28
2360 2946 2950 28
2361 2951 2952 28
2362 2951 2953 28
2363 2951 2954 28
2364 2951 2955 28
2365 2956 2957 28
2366 2956 2958 28
2367 2956 2959 28
2368 2956 2960 28
2369 2961 2962 28
2370 2961 2963 28
2371 2961 2964 28
2372 2961 2965 28
2373 2966 2967 28
2374 2966 2968 28
2375 2966 2969 28
2376 2966 2970 28
2377 2971 2972 28
2378 2971 2973 28
2379 2971 2974 28
2380 2971 2975 28
2381 2976 2977 28
2382 2976 2978 28
2383 2976 2979 28
2384 2976 2980 28
2385 2981 2982 28
2386 2981 2983 28
2387 2981 2984 28
2388 2981 2985 28
2389 2986 2987 28
2390 2986 2988 28
2391 2986 2989 28
2392 2986 2990 28
2393 2991 2992 28
2394 2991 2993 28
2395 2991 2994 28
2396 2991 2995 28
2397 2996 2997 28
2398 2996 2998 28
2399 2996 2999 28
2400 2996 3000 28
2401 3001 3002 28
2402 3001 3003 28
2403 3001 3004 28
2404 3001 3005 28
2405 3006 3007 28
2406 3006 3008 28
2407 3006 3009 28
2408 3006 3010 28
2409 3011 3012 28
2410 3011 3013 28
2411 3011 3014 28
2412 3011 3015 28
2413 3016 3017 28
2414 3016 3018 28
2415 3016 3019 28
2416 3016 3020 28
2417 3021 3022 28
2418 3021 3023 28
2419 3021 3024 28
2420 3021 3025 28
2421 3026 3027 28
2422 3026 3028 28
2423 3026 3029 28
2424 3026 3030 28
2425 3031 3032 28
2426 3031 3033 28
2427 3031 3034 28
2428 3031 3035 28
2429 3036 3037 28
2430 3036 3038 28
2431 3036 3039 28
2432 3036 3040 28
2433 3041 3042 28
2434 3041 3043 28
2435 3041 3044 28
2436 3041 3045 28
2437 3046 3047 28
2438 3046 3048 28
2439 3046 3049 28
2440 3046 3050 28
2441 3051 3052 28
2442 3051 3053 28
2443 3051 3054 28
2444 3051 3055 28
2445 3056 3057 28
2446 3056 3058 28
2447 3056 3059 28
2448 3056 3060 28
2449 3061 3062 28
2450 3061 3063 28
2451 3061 3064 28
2452 3061 3065 28
2453 3066 3067 28
2454 3066 3068 28
2455 3066 3069 28
2456 3066 3070 28
2457 3071 3072 28
2458 3071 3073 28
2459 3071 3074 28
2460 3071 3075 28
2461 3076 3077 28
2462 3076 3078 28
2463 3076 3079 28
2464 3076 3080 28
2465 3081 3082 28
2466 3081 3083 28
2467 3081 3084 28
2468 3081 3085 28
2469 3086 3087 28
2470 3086 3088 28
2471 3086 3089 28
2472 3086 3090 28
2473 3091 3092 28
2474 3091 3093 28
2475 3091 3094 28
2476 3091 3095 28
2477 3096 3097 28
2478 3096 3098 28
2479 3096 3099 28
2480 3096 3100 28
2481 3101 3102 28
2482 3101 3103 28
2483 3101 3104 28
2484 3101 3105 28
2485 3106 3107 28
2486 3106 3108 28
2487 3106 3109 28
2488 3106 3110 28
2489 3111 3112 28
2490 3111 3113 28
2491 3111 3114 28
2492 3111 3115 28
2493 3116 3117 28
2494 3116 3118 28
2495 3116 3119 28
2496 3116 3120 28
2497 3121 3122 28
2498 3121 3123 28
2499 3121 3124 28
2500 3121 3125 28
2501 3126 3127 28
2502 3126 3128 28
2503 3126 3129 28
2504 3126 3130 28
2505 3131 3132 28
2506 3131 3133 28
2507 3131 3134 28
2508 3131 3135 28
2509 3136 3137 28
2510 3136 3138 28
2511 3136 3139 28
2512 3136 3140 28
2513 3141 3142 28
2514 3141 3143 28
2515 3141 3144 28
2516 3141 3145 28
2517 3146 3147 28
2518 3146 3148 28
2519 3146 3149 28
2520 3146 3150 28
2521 3151 3152 28
2522 3151 3153 28
2523 3151 3154 28
2524 3151 3155 28
2525 3156 3157 28
2526 3156 3158 28
2527 3156 3159 28
2528 3156 3160 28
2529 3161 3162 28
2530 3161 3163 28
2531 3161 3164 28
2532 3161 3165 28
2533 3166 3167 28
2534 3166 3168 28
2535 3166 3169 28
2536 3166 3170 28
2537 3171 3172 28
2538 3171 3173 28
2539 3171 3174 28
2540 3171 3175 28
2541 3176 3177 28
2542 3176 3178 28
2543 3176 3179 28
2544 3176 3180 28
2545 3181 3182 28
2546 3181 3183 28
2547 3181 3184 28
2548 3181 3185 28
2549 3186 3187 28
2550 3186 3188 28
2551 3186 3189 28
2552 3186 3190 28
2553 3191 3192 28
2554 3191 3193 28
2555 3191 3194 28
2556 3191 3195 28
2557 3196 3197 28
2558 3196 3198 28
2559 3196 3199 28
2560 3196 3200 28
2561 3201 3202 28
2562 3201 3203 28
2563 3201 3204 28
2564 3201 3205 28
2565 3206 3207 28
2566 3206 3208 28
2567 3206 3209 28
2568 3206 3210 28
2569 3211 3212 28
2570 3211 3213 28
2571 3211 3214 28
2572 3211 3215 28
2573 3216 3217 28
2574 3216 3218 28
2575 3216 3219 28
2576 3216 3220 28
2577 3221 3222 28
2578 3221 3223 28
2579 3221 3224 28
2580 3221 3225 28
2581 3226 3227 28
2582 3226 3228 28
2583 3226 3229 28
2584 3226 3230 28
2585 3231 3232 28
2586 3231 3233 28
2587 3231 3234 28
2588 3231 3235 28
2589 3236 3237 28
2590 3236 3238 28
2591 3236 3239 28
2592 3236 3240 28
2593 3241 3242 28
2594 3241 3243 28
2595 3241 3244 28
2596 3241 3245 28
2597 3246 3247 28
2598 3246 3248 28
2599 3246 3249 28
2600 3246 3250 28
2601 3251 3252 28
2602 3251 3253 28
2603 3251 3254 28
2604 3251 3255 28
2605 3256 3257 28
2606 3256 3258 28
2607 3256 3259 28
2608 3256 3260 28
2609 3261 3262 28
2610 3261 3263 28
2611 3261 3264 28
2612 3261 3265 28
2613 3266 3267 28
2614 3266 3268 28
2615 3266 3269 28
2616 3266 3270 28
2617 3271 3272 28
2618 3271 3273 28
2619 3271 3274 28
2620 3271 3275 28
2621 3276 3277 28
2622 3276 3278 28
2623 3276 3279 28
2624 3276 3280 28
2625 3281 3282 28
2626 3281 3283 28
2627 3281 3284 28
2628 3281 3285 28
2629 3286 3287 28
2630 3286 3288 28
2631 3286 3289 28
2632 3286 3290 28
2633 3291 3292 28
2634 3291 3293 28
2635 3291 3294 28
2636 3291 3295 28
2637 3296 3297 28
2638 3296 3298 28
2639 3296 3299 28
2640 3296 3300 28
2641 3301 3302 28
2642 3301 3303 28
2643 3301 3304 28
2644 3301 3305 28
2645 3306 3307 28
2646 3306 3308 28
2647 3306 3309 28
2648 3306 3310 28
2649 3311 3312 28
2650 3311 3313 28
2651 3311 3314 28
2652 3311 3315 28
2653 3316 3317 28
2654 3316 3318 28
2655 3316 3319 28
2656 3316 3320 28
2657 3321 3322 28
2658 3321 3323 28
2659 3321 3324 28
2660 3321 3325 28
2661 3326 3327 28
2662 3326 3328 28
2663 3326 3329 28
2664 3326 3330 28
2665 3331 3332 28
2666 3331 3333 28
2667 3331 3334 28
2668 3331 3335 28
2669 3336 3337 28
2670 3336 3338 28
2671 3336 3339 28
2672 3336 3340 28
2673 3341 3342 28
2674 3341 3343 28
2675 3341 3344 28
2676 3341 3345 28
2677 3346 3347 28
2678 3346 3348 28
2679 3346 3349 28
2680 3346 3350 28
2681 3351 3352 28
2682 3351 3353 28
2683 3351 3354 28
2684 3351 3355 28
2685 3356 3357 28
2686 3356 3358 28
2687 3356 3359 28
2688 3356 3360 28
2689 3361 3362 28
2690 3361 3363 28
2691 3361 3364 28
2692 3361 3365 28
2693 3366 3367 28
2694 3366 3368 28
2695 3366 3369 28
2696 3366 3370 28
2697 3371 3372 28
2698 3371 3373 28
2699 3371 3374 28
2700 3371 3375 28
2701 3376 3377 28
2702 3376 3378 28
2703 3376 3379 28
2704 3376 3380 28
2705 3381 3382 28
2706 3381 3383 28
2707 3381 3384 28
2708 3381 3385 28
2709 3386 3387 28
2710 3386 3388 28
2711 3386 3389 28
2712 3386 3390 28
2713 3391 3392 28
2714 3391 3393 28
2715 3391 3394 28
2716 3391 3395 28
2717 3396 3397 28
2718 3396 3398 28
2719 3396 3399 28
2720 3396 3400 28
2721 3401 3402 28
2722 3401 3403 28
2723 3401 3404 28
2724 3401 3405 28
2725 3406 3407 28
2726 3406 3408 28
2727 3406 3409 28
2728 3406 3410 28
2729 3411 3412 28
2730 3411 3413 28
2731 3411 3414 28
2732 3411 3415 28
2733 3416 3417 28
2734 3416 3418 28
2735 3416 3419 28
2736 3416 3420 28
2737 3421 3422 28
2738 3421 3423 28
2739 3421 3424 28
2740 3421 3425 28
2741 3426 3427 28
2742 3426 3428 28
2743 3426 3429 28
2744 3426 3430 28
2745 3431 3432 28
2746 3431 3433 28
2747 3431 3434 28
2748 3431 3435 28
2749 3436 3437 28
2750 3436 3438 28
2751 3436 3439 28
2752 3436 3440 28
2753 3441 3442 28
2754 3441 3443 28
2755 3441 3444 28
2756 3441 3445 28
2757 3446 3447 28
2758 3446 3448 28
2759 3446 3449 28
2760 3446 3450 28
2761 3451 3452 28
2762 3451 3453 28
2763 3451 3454 28
2764 3451 3455 28
2765 3456 3457 28
2766 3456 3458 28
2767 3456 3459 28
2768 3456 3460 28
2769 3461 3462 28
2770 3461 3463 28
2771 3461 3464 28
2772 3461 3465 28
2773 3466 3467 28
2774 3466 3468 28
2775 3466 3469 28
2776 3466 3470 28
2777 3471 3472 28
2778 3471 3473 28
2779 3471 3474 28
2780 3471 3475 28
2781 3476 3477 28
2782 3476 3478 28
2783 3476 3479 28
2784 3476 3480 28
2785 3481 3482 28
2786 3481 3483 28
2787 3481 3484 28
2788 3481 3485 28
2789 3486 3487 28
2790 3486 3488 28
2791 3486 3489 28
2792 3486 3490 28
2793 3491 3492 28
2794 3491 3493 28
2795 3491 3494 28
2796 3491 3495 28
2797 3496 3497 28
2798 3496 3498 28
2799 3496 3499 28
2800 3496 3500 28
2801 3501 3502 28
2802 3501 3503 28
2803 3501 3504 28
2804 3501 3505 28
2805 3506 3507 28
2806 3506 3508 28
2807 3506 3509 28
2808 3506 3510 28
2809 3511 3512 28
2810 3511 3513 28
2811 3511 3514 28
2812 3511 3515 28
2813 3516 3517 28
2814 3516 3518 28
2815 3516 3519 28
2816 3516 3520 28
2817 3521 3522 28
2818 3521 3523 28
2819 3521 3524 28
2820 3521 3525 28
2821 3526 3527 28
2822 3526 3528 28
2823 3526 3529 28
2824 3526 3530 28
2825 3531 3532 28
2826 3531 3533 28
2827 3531 3534 28
2828 3531 3535 28
2829 3536 3537 28
2830 3536 3538 28
2831 3536 3539 28
2832 3536 3540 28
2833 3541 3542 28
2834 3541 3543 28
2835 3541 3544 28
2836 3541 3545 28
2837 3546 3547 28
2838 3546 3548 28
2839 3546 3549 28
2840 3546 3550 28
2841 3551 3552 28
2842 3551 3553 28
2843 3551 3554 28
2844 3551 3555 28
2845 3556 3557 28
2846 3556 3558 28
2847 3556 3559 28
2848 3556 3560 28
2849 3561 3562 28
2850 3561 3563 28
2851 3561 3564 28
2852 3561 3565 28
2853 3566 3567 28
2854 3566 3568 28
2855 3566 3569 28
2856 3566 3570 28
2857 3571 3572 28
2858 3571 3573 28
2859 3571 3574 28
2860 3571 3575 28
2861 3576 3577 28
2862 3576 3578 28
2863 3576 3579 28
2864 3576 3580 28
2865 3581 3582 28
2866 3581 3583 28
2867 3581 3584 28
2868 3581 3585 28
2869 3586 3587 28
2870 3586 3588 28
2871 3586 3589 28
2872 3586 3590 28
2873 3591 3592 28
2874 3591 3593 28
2875 3591 3594 28
2876 3591 3595 28
2877 3596 3597 28
2878 3596 3598 28
2879 3596 3599 28
2880 3596 3600 28
2881 3601 3602 28
2882 3601 3603 28
2883 3601 3604 28
2884 3601 3605 28
2885 3606 3607 28
2886 3606 3608 28
2887 3606 3609 28
2888 3606 3610 28
2889 3611 3612 28
2890 3611 3613 28
2891 3611 3614 28
2892 3611 3615 28
2893 3616 3617 28
2894 3616 3618 28
2895 3616 3619 28
2896 3616 3620 28
2897 3621 3622 28
2898 3621 3623 28
2899 3621 3624 28
2900 3621 3625 28
2901 3626 3627 28
2902 3626 3628 28
2903 3626 3629 28
2904 3626 3630 28
2905 3631 3632 28
2906 3631 3633 28
2907 3631 3634 28
2908 3631 3635 28
2909 3636 3637 28
2910 3636 3638 28
2911 3636 3639 28
2912 3636 3640 28
2913 3641 3642 28
2914 3641 3643 28
2915 3641 3644 28
2916 3641 3645 28
2917 3646 3647 28
2918 3646 3648 28
2919 3646 3649 28
2920 3646 3650 28
2921 3651 3652 28
2922 3651 3653 28
2923 3651 3654 28
2924 3651 3655 28
2925 3656 3657 28
2926 3656 3658 28
2927 3656 3659 28
2928 3656 3660 28
2929 3661 3662 28
2930 3661 3663 28
2931 3661 3664 28
2932 3661 3665 28
2933 3666 3667 28
2934 3666 3668 28
2935 3666 3669 28
2936 3666 3670 28
2937 3671 3672 28
2938 3671 3673 28
2939 3671 3674 28
2940 3671 3675 28
2941 3676 3677 28
2942 3676 3678 28
2943 3676 3679 28
2944 3676 3680 28
2945 3681 3682 28
2946 3681 3683 28
2947 3681 3684 28
2948 3681 3685 28
2949 3686 3687 28
2950 3686 3688 28
2951 3686 3689 28
2952 3686 3690 28
2953 3691 3692 28
2954 3691 3693 28
2955 3691 3694 28
2956 3691 3695 28
2957 3696 3697 28
2958 3696 3698 28
2959 3696 3699 28
2960 3696 3700 28
2961 3701 3702 28
2962 3701 3703 28
2963 3701 3704 28
2964 3701 3705 28
2965 3706 3707 28
2966 3706 3708 28
2967 3706 3709 28
2968 3706 3710 28
2969 3711 3712 28
2970 3711 3713 28
2971 3711 3714 28
2972 3711 3715 28
2973 3716 3717 28
2974 3716 3718 28
2975 3716 3719 28
2976 3716 3720 28
2977 3721 3722 28
2978 3721 3723 28
2979 3721 3724 28
2980 3721 3725 28
2981 3726 3727 28
2982 3726 3728 28
2983 3726 3729 28
2984 3726 3730 28
2985 3731 3732 28
2986 3731 3733 28
2987 3731 3734 28
2988 3731 3735 28
2989 3736 3737 28
2990 3736 3738 28
2991 3736 3739 28
2992 3736 3740 28
2993 3741 3742 28
2994 3741 3743 28
2995 3741 3744 28
2996 3741 3745 28
2997 3746 3747 28
2998 3746 3748 28
2999 3746 3749 28
3000 3746 3750 28
3001 3751 3752 28
3002 3751 3753 28
3003 3751 3754 28
3004 3751 3755 28
3005 3756 3757 28
3006 3756 3758 28
3007 3756 3759 28
3008 3756 3760 28
3009 3761 3762 28
3010 3761 3763 28
3011 3761 3764 28
3012 3761 3765 28
3013 3766 3767 28
3014 3766 3768 28
3015 3766 3769 28
3016 3766 3770 28
3017 3771 3772 28
3018 3771 3773 28
3019 3771 3774 28
3020 3771 3775 28
3021 3776 3777 28
3022 3776 3778 28
3023 3776 3779 28
3024 3776 3780 28
3025 3781 3782 28
3026 3781 3783 28
3027 3781 3784 28
3028 3781 3785 28
3029 3786 3787 28
3030 3786 3788 28
3031 3786 3789 28
3032 3786 3790 28
3033 3791 3792 28
3034 3791 3793 28
3035 3791 3794 28
3036 3791 3795 28
3037 3796 3797 28
3038 3796 3798 28
3039 3796 3799 28
3040 3796 3800 28
3041 3801 3802 28
3042 3801 3803 28
3043 3801 3804 28
3044 3801 3805 28
3045 3806 3807 28
3046 3806 3808 28
3047 3806 3809 28
3048 3806 3810 28
3049 3811 3812 28
3050 3811 3813 28
3051 3811 3814 28
3052 3811 3815 28
3053 3816 3817 28
3054 3816 3818 28
3055 3816 3819 28
3056 3816 3820 28
3057 3821 3822 28
3058 3821 3823 28
3059 3821 3824 28
3060 3821 3825 28
3061 3826 3827 28
3062 3826 3828 28
3063 3826 3829 28
3064 3826 3830 28
3065 3831 3832 28
3066 3831 3833 28
3067 3831 3834 28
3068 3831 3835 28
3069 3836 3837 28
3070 3836 3838 28
3071 3836 3839 28
3072 3836 3840 28
3073 3841 3842 28
3074 3841 3843 28
3075 3841 3844 28
3076 3841 3845 28
3077 3846 3847 28
3078 3846 3848 28
3079 3846 3849 28
3080 3846 3850 28
3081 3851 3852 28
3082 3851 3853 28
3083 3851 3854 28
3084 3851 3855 28
3085 3856 3857 28
3086 3856 3858 28
3087 3856 3859 28
3088 3856 3860 28
3089 3861 3862 28
3090 3861 3863 28
3091 3861 3864 28
3092 3861 3865 28
3093 3866 3867 28
3094 3866 3868 28
3095 3866 3869 28
3096 3866 3870 28
3097 3871 3872 28
3098 3871 3873 28
3099 3871 3874 28
3100 3871 3875 28
3101 3876 3877 28
3102 3876 3878 28
3103 3876 3879 28
3104 3876 3880 28
3105 3881 3882 28
3106 3881 3883 28
3107 3881 3884 28
3108 3881 3885 28
3109 3886 3887 28
3110 3886 3888 28
3111 3886 3889 28
3112 3886 3890 28
3113 3891 3892 28
3114 3891 3893 28
3115 3891 3894 28
3116 3891 3895 28
3117 3896 3897 28
3118 3896 3898 28
3119 3896 3899 28
3120 3896 3900 28
3121 3901 3902 28
3122 3901 3903 28
3123 3901 3904 28
3124 3901 3905 28
3125 3906 3907 28
3126 3906 3908 28
3127 3906 3909 28
3128 3906 3910 28
3129 3911 3912 28
3130 3911 3913 28
3131 3911 3914 28
3132 3911 3915 28
3133 3916 3917 28
3134 3916 3918 28
3135 3916 3919 28
3136 3916 3920 28
3137 3921 3922 28
3138 3921 3923 28
3139 3921 3924 28
3140 3921 3925 28
3141 3926 3927 28
3142 3926 3928 28
3143 3926 3929 28
3144 3926 3930 28
3145 3931 3932 28
3146 3931 3933 28
3147 3931 3934 28
3148 3931 3935 28
3149 3936 3937 28
3150 3936 3938 28
3151 3936 3939 28
3152 3936 3940 28
3153 3941 3942 28
3154 3941 3943 28
3155 3941 3944 28
3156 3941 3945 28
3157 3946 3947 28
3158 3946 3948 28
3159 3946 3949 28
3160 3946 3950 28
3161 3951 3952 28
3162 3951 3953 28
3163 3951 3954 28
3164 3951 3955 28
3165 3956 3957 28
3166 3956 3958 28
3167 3956 3959 28
3168 3956 3960 28
3169 3961 3962 28
3170 3961 3963 28
3171 3961 3964 28
3172 3961 3965 28
3173 3966 3967 28
3174 3966 3968 28
3175 3966 3969 28
3176 3966 3970 28
3177 3971 3972 28
3178 3971 3973 28
3179 3971 3974 28
3180 3971 3975 28
3181 3976 3977 28
3182 3976 3978 28
3183 3976 3979 28
3184 3976 3980 28
3185 3981 3982 28
3186 3981 3983 28
3187 3981 3984 28
3188 3981 3985 28
3189 3986 3987 28
3190 3986 3988 28
3191 3986 3989 28
3192 3986 3990 28
3193 3991 3992 28
3194 3991 3993 28
3195 3991 3994 28
3196 3991 3995 28
3197 3996 3997 28
3198 3996 3998 28
3199 3996 3999 28
3200 3996 4000 28
3201 4001 4002 28
3202 4001 4003 28
3203 4001 4004 28
3204 4001 4005 28
3205 4006 4007 28
3206 4006 4008 28
3207 4006 4009 28
3208 4006 4010 28
3209 4011 4012 28
3210 4011 4013 28
3211 4011 4014 28
3212 4011 4015 28
3213 4016 4017 28
3214 4016 4018 28
3215 4016 4019 28
3216 4016 4020 28
3217 4021 4022 28
3218 4021 4023 28
3219 4021 4024 28
3220 4021 4025 28
3221 4026 4027 28
3222 4026 4028 28
3223 4026 4029 28
3224 4026 4030 28
3225 4031 4032 28
3226 4031 4033 28
3227 4031 4034 28
3228 4031 4035 28
3229 4036 4037 28
3230 4036 4038 28
3231 4036 4039 28
3232 4036 4040 28
3233 4041 4042 28
3234 4041 4043 28
3235 4041 4044 28
3236 4041 4045 28
3237 4046 4047 28
3238 4046 4048 28
3239 4046 4049 28
3240 4046 4050 28
3241 4051 4052 28
3242 4051 4053 28
3243 4051 4054 28
3244 4051 4055 28
3245 4056 4057 28
3246 4056 4058 28
3247 4056 4059 28
3248 4056 4060 28
3249 4061 4062 28
3250 4061 4063 28
3251 4061 4064 28
3252 4061 4065 28
3253 4066 4067 28
3254 4066 4068 28
3255 4066 4069 28
3256 4066 4070 28
3257 4071 4072 28
3258 4071 4073 28
3259 4071 4074 28
3260 4071 4075 28
3261 4076 4077 28
3262 4076 4078 28
3263 4076 4079 28
3264 4076 4080 28
3265 4081 4082 28
3266 4081 4083 28
3267 4081 4084 28
3268 4081 4085 28
3269 4086 4087 28
3270 4086 4088 28
3271 4086 4089 28
3272 4086 4090 28
3273 4091 4092 28
3274 4091 4093 28
3275 4091 4094 28
3276 4091 4095 28
3277 4096 4097 28
3278 4096 4098 28
3279 4096 4099 28
3280 4096 4100 28
3281 4101 4102 28
3282 4101 4103 28
3283 4101 4104 28
3284 4101 4105 28
3285 4106 4107 28
3286 4106 4108 28
3287 4106 4109 28
3288 4106 4110 28
3289 4111 4112 28
3290 4111 4113 28
3291 4111 4114 28
3292 4111 4115 28
3293 4116 4117 28
3294 4116 4118 28
3295 4116 4119 28
3296 4116 4120 28
3297 4121 4122 28
3298 4121 4123 28
3299 4121 4124 28
3300 4121 4125 28
3301 4126 4127 28
3302 4126 4128 28
3303 4126 4129 28
3304 4126 4130 28
3305 4131 4132 28
3306 4131 4133 28
3307 4131 4134 28
3308 4131 4135 28
3309 4136 4137 28
3310 4136 4138 28
3311 4136 4139 28
3312 4136 4140 28
3313 4141 4142 28
3314 4141 4143 28
3315 4141 4144 28
3316 4141 4145 28
3317 4146 4147 28
3318 4146 4148 28
3319 4146 4149 28
3320 4146 4150 28
3321 4151 4152 28
3322 4151 4153 28
3323 4151 4154 28
3324 4151 4155 28
3325 4156 4157 28
3326 4156 4158 28
3327 4156 4159 28
3328 4156 4160 28
3329 4161 4162 28
3330 4161 4163 28
3331 4161 4164 28
3332 4161 4165 28
3333 4166 4167 28
3334 4166 4168 28
3335 4166 4169 28
3336 4166 4170 28
3337 4171 4172 28
3338 4171 4173 28
3339 4171 4174 28
3340 4171 4175 28
3341 4176 4177 28
3342 4176 4178 28
3343 4176 4179 28
3344 4176 4180 28
3345 4181 4182 28
3346 4181 4183 28
3347 4181 4184 28
3348 4181 4185 28
3349 4186 4187 28
3350 4186 4188 28
3351 4186 4189 28
3352 4186 4190 28
3353 4191 4192 28
3354 4191 4193 28
3355 4191 4194 28
3356 4191 4195 28
3357 4196 4197 28
3358 4196 4198 28
3359 4196 4199 28
3360 4196 4200 28
3361 4201 4202 28
3362 4201 4203 28
3363 4201 4204 28
3364 4201 4205 28
3365 4206 4207 28
3366 4206 4208 28
3367 4206 4209 28
3368 4206 4210 28
3369 4211 4212 28
3370 4211 4213 28
3371 4211 4214 28
3372 4211 4215 28
3373 4216 4217 28
3374 4216 4218 28
3375 4216 4219 28
3376 4216 4220 28
3377 4221 4222 28
3378 4221 4223 28
3379 4221 4224 28
3380 4221 4225 28
3381 4226 4227 28
3382 4226 4228 28
3383 4226 4229 28
3384 4226 4230 28
3385 4231 4232 28
3386 4231 4233 28
3387 4231 4234 28
3388 4231 4235 28
3389 4236 4237 28
3390 4236 4238 28
3391 4236 4239 28
3392 4236 4240 28
3393 4241 4242 28
3394 4241 4243 28
3395 4241 4244 28
3396 4241 4245 28
3397 4246 4247 28
3398 4246 4248 28
3399 4246 4249 28
3400 4246 4250 28
3401 4251 4252 28
3402 4251 4253 28
3403 4251 4254 28
3404 4251 4255 28
3405 4256 4257 28
3406 4256 4258 28
3407 4256 4259 28
3408 4256 4260 28
3409 4261 4262 28
3410 4261 4263 28
3411 4261 4264 28
3412 4261 4265 28
3413 4266 4267 28
3414 4266 4268 28
3415 4266 4269 28
3416 4266 4270 28
3417 4271 4272 28
3418 4271 4273 28
3419 4271 4274 28
3420 4271 4275 28
3421 4276 4277 28
3422 4276 4278 28
3423 4276 4279 28
3424 4276 4280 28
3425 4281 4282 28
3426 4281 4283 28
3427 4281 4284 28
3428 4281 4285 28
3429 4286 4287 28
3430 4286 4288 28
3431 4286 4289 28
3432 4286 4290 28
3433 4291 4292 28
3434 4291 4293 28
3435 4291 4294 28
3436 4291 4295 28
3437 4296 4297 28
3438 4296 4298 28
3439 4296 4299 28
3440 4296 4300 28
3441 4301 4302 28
3442 4301 4303 28
3443 4301 4304 28
3444 4301 4305 28
3445 4306 4307 28
3446 4306 4308 28
3447 4306 4309 28
3448 4306 4310 28
3449 4311 4312 28
3450 4311 4313 28
3451 4311 4314 28
3452 4311 4315 28
3453 4316 4317 28
3454 4316 4318 28
3455 4316 4319 28
3456 4316 4320 28
3457 4321 4322 28
3458 4321 4323 28
3459 4321 4324 28
3460 4321 4325 28
3461 4326 4327 28
3462 4326 4328 28
3463 4326 4329 28
3464 4326 4330 28
3465 4331 4332 28
3466 4331 4333 28
3467 4331 4334 28
3468 4331 4335 28
3469 4336 4337 28
3470 4336 4338 28
3471 4336 4339 28
3472 4336 4340 28
3473 4341 4342 28
3474 4341 4343 28
3475 4341 4344 28
3476 4341 4345 28
3477 4346 4347 28
3478 4346 4348 28
3479 4346 4349 28
3480 4346 4350 28
3481 4351 4352 28
3482 4351 4353 28
3483 4351 4354 28
3484 4351 4355 28
3485 4356 4357 28
3486 4356 4358 28
3487 4356 4359 28
3488 4356 4360 28
3489 4361 4362 28
3490 4361 4363 28
3491 4361 4364 28
3492 4361 4365 28
3493 4366 4367 28
3494 4366 4368 28
3495 4366 4369 28
3496 4366 4370 28
3497 4371 4372 28
3498 4371 4373 28
3499 4371 4374 28
3500 4371 4375 28
3501 4376 4377 28
3502 4376 4378 28
3503 4376 4379 28
3504 4376 4380 28
3505 4381 4382 28
3506 4381 4383 28
3507 4381 4384 28
3508 4381 4385 28
3509 4386 4387 28
3510 4386 4388 28
3511 4386 4389 28
3512 4386 4390 28
3513 4391 4392 28
3514 4391 4393 28
3515 4391 4394 28
3516 4391 4395 28
3517 4396 4397 28
3518 4396 4398 28
3519 4396 4399 28
3520 4396 4400 28
3521 4401 4402 28
3522 4401 4403 28
3523 4401 4404 28
3524 4401 4405 28
3525 4406 4407 28
3526 4406 4408 28
3527 4406 4409 28
3528 4406 4410 28
3529 4411 4412 28
3530 4411 4413 28
3531 4411 4414 28
3532 4411 4415 28
3533 4416 4417 28
3534 4416 4418 28
3535 4416 4419 28
3536 4416 4420 28
3537 4421 4422 28
3538 4421 4423 28
3539 4421 4424 28
3540 4421 4425 28
3541 4426 4427 28
3542 4426 4428 28
3543 4426 4429 28
3544 4426 4430 28
3545 4431 4432 28
3546 4431 4433 28
3547 4431 4434 28
3548 4431 4435 28
3549 4436 4437 28
3550 4436 4438 28
3551 4436 4439 28
3552 4436 4440 28
3553 4441 4442 28
3554 4441 4443 28
3555 4441 4444 28
3556 4441 4445 28
3557 4446 4447 28
3558 4446 4448 28
3559 4446 4449 28
3560 4446 4450 28
3561 4451 4452 28
3562 4451 4453 28
3563 4451 4454 28
3564 4451 4455 28
3565 4456 4457 28
3566 4456 4458 28
3567 4456 4459 28
3568 4456 4460 28
3569 4461 4462 28
3570 4461 4463 28
3571 4461 4464 28
3572 4461 4465 28
3573 4466 4467 28
3574 4466 4468 28
3575 4466 4469 28
3576 4466 4470 28
3577 4471 4472 28
3578 4471 4473 28
3579 4471 4474 28
3580 4471 4475 28
3581 4476 4477 28
3582 4476 4478 28
3583 4476 4479 28
3584 4476 4480 28
3585 4481 4482 28
3586 4481 4483 28
3587 4481 4484 28
3588 4481 4485 28
3589 4486 4487 28
3590 4486 4488 28
3591 4486 4489 28
3592 4486 4490 28
3593 4491 4492 28
3594 4491 4493 28
3595 4491 4494 28
3596 4491 4495 28
3597 4496 4497 28
3598 4496 4498 28
3599 4496 4499 28
3600 4496 4500 28
3601 4501 4502 28
3602 4501 4503 28
3603 4501 4504 28
3604 4501 4505 28
3605 4506 4507 28
3606 4506 4508 28
3607 4506 4509 28
3608 4506 4510 28
3609 4511 4512 28
3610 4511 4513 28
3611 4511 4514 28
3612 4511 4515 28
3613 4516 4517 28
3614 4516 4518 28
3615 4516 4519 28
3616 4516 4520 28
3617 4521 4522 28
3618 4521 4523 28
3619 4521 4524 28
3620 4521 4525 28
3621 4526 4527 28
3622 4526 4528 28
3623 4526 4529 28
3624 4526 4530 28
3625 4531 4532 28
3626 4531 4533 28
3627 4531 4534 28
3628 4531 4535 28
3629 4536 4537 28
3630 4536 4538 28
3631 4536 4539 28
3632 4536 4540 28
3633 4541 4542 28
3634 4541 4543 28
3635 4541 4544 28
3636 4541 4545 28
3637 4546 4547 28
3638 4546 4548 28
3639 4546 4549 28
3640 4546 4550 28
3641 4551 4552 28
3642 4551 4553 28
3643 4551 4554 28
3644 4551 4555 28
3645 4556 4557 28
3646 4556 4558 28
3647 4556 4559 28
3648 4556 4560 28
3649 4561 4562 28
3650 4561 4563 28
3651 4561 4564 28
3652 4561 4565 28
3653 4566 4567 28
3654 4566 4568 28
3655 4566 4569 28
3656 4566 4570 28
3657 4571 4572 28
3658 4571 4573 28
3659 4571 4574 28
3660 4571 4575 28
3661 4576 4577 28
3662 4576 4578 28
3663 4576 4579 28
3664 4576 4580 28
3665 4581 4582 28
3666 4581 4583 28
3667 4581 4584 28
3668 4581 4585 28
3669 4586 4587 28
3670 4586 4588 28
3671 4586 4589 28
3672 4586 4590 28
3673 4591 4592 28
3674 4591 4593 28
3675 4591 4594 28
3676 4591 4595 28
3677 4596 4597 28
3678 4596 4598 28
3679 4596 4599 28
3680 4596 4600 28
3681 4601 4602 28
3682 4601 4603 28
3683 4601 4604 28
3684 4601 4605 28
3685 4606 4607 28
3686 4606 4608 28
3687 4606 4609 28
3688 4606 4610 28
3689 4611 4612 28
3690 4611 4613 28
3691 4611 4614 28
3692 4611 4615 28
3693 4616 4617 28
3694 4616 4618 28
3695 4616 4619 28
3696 4616 4620 28
3697 4621 4622 28
3698 4621 4623 28
3699 4621 4624 28
3700 4621 4625 28
3701 4626 4627 28
3702 4626 4628 28
3703 4626 4629 28
3704 4626 4630 28
3705 4631 4632 28
3706 4631 4633 28
3707 4631 4634 28
3708 4631 4635 28
3709 4636 4637 28
3710 4636 4638 28
3711 4636 4639 28
3712 4636 4640 28
3713 4641 4642 28
3714 4641 4643 28
3715 4641 4644 28
3716 4641 4645 28
3717 4646 4647 28
3718 4646 4648 28
3719 4646 4649 28
3720 4646 4650 28
3721 4651 4652 28
3722 4651 4653 28
3723 4651 4654 28
3724 4651 4655 28
3725 4656 4657 28
3726 4656 4658 28
3727 4656 4659 28
3728 4656 4660 28
3729 4661 4662 28
3730 4661 4663 28
3731 4661 4664 28
3732 4661 4665 28
3733 4666 4667 28
3734 4666 4668 28
3735 4666 4669 28
3736 4666 4670 28
3737 4671 4672 28
3738 4671 4673 28
3739 4671 4674 28
3740 4671 4675 28
3741 4676 4677 28
3742 4676 4678 28
3743 4676 4679 28
3744 4676 4680 28
3745 4681 4682 28
3746 4681 4683 28
3747 4681 4684 28
3748 4681 4685 28
3749 4686 4687 28
3750 4686 4688 28
3751 4686 4689 28
3752 4686 4690 28
3753 4691 4692 28
3754 4691 4693 28
3755 4691 4694 28
3756 4691 4695 28
3757 4696 4697 28
3758 4696 4698 28
3759 4696 4699 28
3760 4696 4700 28
3761 4701 4702 28
3762 4701 4703 28
3763 4701 4704 28
3764 4701 4705 28
3765 4706 4707 28
3766 4706 4708 28
3767 4706 4709 28
3768 4706 4710 28
3769 4711 4712 28
3770 4711 4713 28
3771 4711 4714 28
3772 4711 4715 28
3773 4716 4717 28
3774 4716 4718 28
3775 4716 4719 28
3776 4716 4720 28
3777 4721 4722 28
3778 4721 4723 28
3779 4721 4724 28
3780 4721 4725 28
3781 4726 4727 28
3782 4726 4728 28
3783 4726 4729 28
3784 4726 4730 28
3785 4731 4732 28
3786 4731 4733 28
3787 4731 4734 28
3788 4731 4735 28
3789 4736 4737 28
3790 4736 4738 28
3791 4736 4739 28
3792 4736 4740 28
3793 4741 4742 28
3794 4741 4743 28
3795 4741 4744 28
3796 4741 4745 28
3797 4746 4747 28
3798 4746 4748 28
3799 4746 4749 28
3800 4746 4750 28
3801 4751 4752 28
3802 4751 4753 28
3803 4751 4754 28
3804 4751 4755 28
3805 4756 4757 28
3806 4756 4758 28
3807 4756 4759 28
3808 4756 4760 28
3809 4761 4762 28
3810 4761 4763 28
3811 4761 4764 28
3812 4761 4765 28
3813 4766 4767 28
3814 4766 4768 28
3815 4766 4769 28
3816 4766 4770 28
3817 4771 4772 28
3818 4771 4773 28
3819 4771 4774 28
3820 4771 4775 28
3821 4776 4777 28
3822 4776 4778 28
3823 4776 4779 28
3824 4776 4780 28
3825 4781 4782 28
3826 4781 4783 28
3827 4781 4784 28
3828 4781 4785 28
3829 4786 4787 28
3830 4786 4788 28
3831 4786 4789 28
3832 4786 4790 28
3833 4791 4792 28
3834 4791 4793 28
3835 4791 4794 28
3836 4791 4795 28
3837 4796 4797 28
3838 4796 4798 28
3839 4796 4799 28
3840 4796 4800 28
3841 4801 4802 28
3842 4801 4803 28
3843 4801 4804 28
3844 4801 4805 28
3845 4806 4807 28
3846 4806 4808 28
3847 4806 4809 28
3848 4806 4810 28
3849 4811 4812 28
3850 4811 4813 28
3851 4811 4814 28
3852 4811 4815 28
3853 4816 4817 28
3854 4816 4818 28
3855 4816 4819 28
3856 4816 4820 28
3857 4821 4822 28
3858 4821 4823 28
3859 4821 4824 28
3860 4821 4825 28
3861 4826 4827 28
3862 4826 4828 28
3863 4826 4829 28
3864 4826 4830 28
3865 4831 4832 28
3866 4831 4833 28
3867 4831 4834 28
3868 4831 4835 28
3869 4836 4837 28
3870 4836 4838 28
3871 4836 4839 28
3872 4836 4840 28
3873 4841 4842 28
3874 4841 4843 28
3875 4841 4844 28
3876 4841 4845 28
3877 4846 4847 28
3878 4846 4848 28
3879 4846 4849 28
3880 4846 4850 28
3881 4851 4852 28
3882 4851 4853 28
3883 4851 4854 28
3884 4851 4855 28
3885 4856 4857 28
3886 4856 4858 28
3887 4856 4859 28
3888 4856 4860 28
3889 4861 4862 28
3890 4861 4863 28
3891 4861 4864 28
3892 4861 4865 28
3893 4866 4867 28
3894 4866 4868 28
3895 4866 4869 28
3896 4866 4870 28
3897 4871 4872 28
3898 4871 4873 28
3899 4871 4874 28
3900 4871 4875 28
3901 4876 4877 28
3902 4876 4878 28
3903 4876 4879 28
3904 4876 4880 28
3905 4881 4882 28
3906 4881 4883 28
3907 4881 4884 28
3908 4881 4885 28
3909 4886 4887 28
3910 4886 4888 28
3911 4886 4889 28
3912 4886 4890 28
3913 4891 4892 28
3914 4891 4893 28
3915 4891 4894 28
3916 4891 4895 28
3917 4896 4897 28
3918 4896 4898 28
3919 4896 4899 28
3920 4896 4900 28
3921 4901 4902 28
3922 4901 4903 28
3923 4901 4904 28
3924 4901 4905 28
3925 4906 4907 28
3926 4906 4908 28
3927 4906 4909 28
3928 4906 4910 28
3929 4911 4912 28
3930 4911 4913 28
3931 4911 4914 28
3932 4911 4915 28
3933 4916 4917 28
3934 4916 4918 28
3935 4916 4919 28
3936 4916 4920 28
3937 4921 4922 28
3938 4921 4923 28
3939 4921 4924 28
3940 4921 4925 28
3941 4926 4927 28
3942 4926 4928 28
3943 4926 4929 28
3944 4926 4930 28
3945 4931 4932 28
3946 4931 4933 28
3947 4931 4934 28
3948 4931 4935 28
3949 4936 4937 28
3950 4936 4938 28
3951 4936 4939 28
3952 4936 4940 28
3953 4941 4942 28
3954 4941 4943 28
3955 4941 4944 28
3956 4941 4945 28
3957 4946 4947 28
3958 4946 4948 28
3959 4946 4949 28
3960 4946 4950 28
3961 4951 4952 28
3962 4951 4953 28
3963 4951 4954 28
3964 4951 4955 28
3965 4956 4957 28
3966 4956 4958 28
3967 4956 4959 28
3968 4956 4960 28
3969 4961 4962 28
3970 4961 4963 28
3971 4961 4964 28
3972 4961 4965 28
3973 4966 4967 28
3974 4966 4968 28
3975 4966 4969 28
3976 4966 4970 28
3977 4971 4972 28
3978 4971 4973 28
3979 4971 4974 28
3980 4971 4975 28
3981 4976 4977 28
3982 4976 4978 28
3983 4976 4979 28
3984 4976 4980 28
3985 4981 4982 28
3986 4981 4983 28
3987 4981 4984 28
3988 4981 4985 28
3989 4986 4987 28
3990 4986 4988 28
3991 4986 4989 28
3992 4986 4990 28
3993 4991 4992 28
3994 4991 4993 28
3995 4991 4994 28
3996 4991 4995 28
3997 4996 4997 28
3998 4996 4998 28
3999 4996 4999 28
4000 4996 5000 28
4001 5001 5002 28
4002 5001 5003 28
4003 5001 5004 28
4004 5001 5005 28
4005 5006 5007 28
4006 5006 5008 28
4007 5006 5009 28
4008 5006 5010 28
4009 5011 5012 28
4010 5011 5013 28
4011 5011 5014 28
4012 5011 5015 28
4013 5016 5017 28
4014 5016 5018 28
4015 5016 5019 28
4016 5016 5020 28
4017 5021 5022 28
4018 5021 5023 28
4019 5021 5024 28
4020 5021 5025 28
4021 5026 5027 28
4022 5026 5028 28
4023 5026 5029 28
4024 5026 5030 28
4025 5031 5032 28
4026 5031 5033 28
4027 5031 5034 28
4028 5031 5035 28
4029 5036 5037 28
4030 5036 5038 28
4031 5036 5039 28
4032 5036 5040 28
4033 5041 5042 28
4034 5041 5043 28
4035 5041 5044 28
4036 5041 5045 28
4037 5046 5047 28
4038 5046 5048 28
4039 5046 5049 28
4040 5046 5050 28
4041 5051 5052 28
4042 5051 5053 28
4043 5051 5054 28
4044 5051 5055 28
4045 5056 5057 28
4046 5056 5058 28
4047 5056 5059 28
4048 5056 5060 28
4049 5061 5062 28
4050 5061 5063 28
4051 5061 5064 28
4052 5061 5065 28
4053 5066 5067 28
4054 5066 5068 28
4055 5066 5069 28
4056 5066 5070 28
4057 5071 5072 28
4058 5071 5073 28
4059 5071 5074 28
4060 5071 5075 28
4061 5076 5077 28
4062 5076 5078 28
4063 5076 5079 28
4064 5076 5080 28
4065 5081 5082 28
4066 5081 5083 28
4067 5081 5084 28
4068 5081 5085 28
4069 5086 5087 28
4070 5086 5088 28
4071 5086 5089 28
4072 5086 5090 28
4073 5091 5092 28
4074 5091 5093 28
4075 5091 5094 28
4076 5091 5095 28
4077 5096 5097 28
4078 5096 5098 28
4079 5096 5099 28
4080 5096 5100 28
4081 5101 5102 28
4082 5101 5103 28
4083 5101 5104 28
4084 5101 5105 28
4085 5106 5107 28
4086 5106 5108 28
4087 5106 5109 28
4088 5106 5110 28
4089 5111 5112 28
4090 5111 5113 28
4091 5111 5114 28
4092 5111 5115 28
4093 5116 5117 28
4094 5116 5118 28
4095 5116 5119 28
4096 5116 5120 28
4097 5121 5122 28
4098 5121 5123 28
4099 5121 5124 28
4100 5121 5125 28
4101 5126 5127 28
4102 5126 5128 28
4103 5126 5129 28
4104 5126 5130 28
4105 5131 5132 28
4106 5131 5133 28
4107 5131 5134 28
4108 5131 5135 28
4109 5136 5137 28
4110 5136 5138 28
4111 5136 5139 28
4112 5136 5140 28
4113 5141 5142 28
4114 5141 5143 28
4115 5141 5144 28
4116 5141 5145 28
4117 5146 5147 28
4118 5146 5148 28
4119 5146 5149 28
4120 5146 5150 28
4121 5151 5152 28
4122 5151 5153 28
4123 5151 5154 28
4124 5151 5155 28
4125 5156 5157 28
4126 5156 5158 28
4127 5156 5159 28
4128 5156 5160 28
4129 5161 5162 28
4130 5161 5163 28
4131 5161 5164 28
4132 5161 5165 28
4133 5166 5167 28
4134 5166 5168 28
4135 5166 5169 28
4136 5166 5170 28
4137 5171 5172 28
4138 5171 5173 28
4139 5171 5174 28
4140 5171 5175 28
4141 5176 5177 28
4142 5176 5178 28
4143 5176 5179 28
4144 5176 5180 28
4145 5181 5182 28
4146 5181 5183 28
4147 5181 5184 28
4148 5181 5185 28
4149 5186 5187 28
4150 5186 5188 28
4151 5186 5189 28
4152 5186 5190 28
4153 5191 5192 28
4154 5191 5193 28
4155 5191 5194 28
4156 5191 5195 28
4157 5196 5197 28
4158 5196 5198 28
4159 5196 5199 28
4160 5196 5200 28
4161 5201 5202 28
4162 5201 5203 28
4163 5201 5204 28
4164 5201 5205 28
4165 5206 5207 28
4166 5206 5208 28
4167 5206 5209 28
4168 5206 5210 28
4169 5211 5212 28
4170 5211 5213 28
4171 5211 5214 28
4172 5211 5215 28
4173 5216 5217 28
4174 5216 5218 28
4175 5216 5219 28
4176 5216 5220 28
4177 5221 5222 28
4178 5221 5223 28
4179 5221 5224 28
4180 5221 5225 28
4181 5226 5227 28
4182 5226 5228 28
4183 5226 5229 28
4184 5226 5230 28
4185 5231 5232 28
4186 5231 5233 28
4187 5231 5234 28
4188 5231 5235 28
4189 5236 5237 28
4190 5236 5238 28
4191 5236 5239 28
4192 5236 5240 28
4193 5241 5242 28
4194 5241 5243 28
4195 5241 5244 28
4196 5241 5245 28
4197 5246 5247 28
4198 5246 5248 28
4199 5246 5249 28
4200 5246 5250 28
4201 5251 5252 28
4202 5251 5253 28
4203 5251 5254 28
4204 5251 5255 28
4205 5256 5257 28
4206 5256 5258 28
4207 5256 5259 28
4208 5256 5260 28
4209 5261 5262 28
4210 5261 5263 28
4211 5261 5264 28
4212 5261 5265 28
4213 5266 5267 28
4214 5266 5268 28
4215 5266 5269 28
4216 5266 5270 28
4217 5271 5272 28
4218 5271 5273 28
4219 5271 5274 28
4220 5271 5275 28
4221 5276 5277 28
4222 5276 5278 28
4223 5276 5279 28
4224 5276 5280 28
4225 5281 5282 28
4226 5281 5283 28
4227 5281 5284 28
4228 5281 5285 28
4229 5286 5287 28
4230 5286 5288 28
4231 5286 5289 28
4232 5286 5290 28
4233 5291 5292 28
4234 5291 5293 28
4235 5291 5294 28
4236 5291 5295 28
4237 5296 5297 28
4238 5296 5298 28
4239 5296 5299 28
4240 5296 5300 28
4241 5301 5302 28
4242 5301 5303 28
4243 5301 5304 28
4244 5301 5305 28
4245 5306 5307 28
4246 5306 5308 28
4247 5306 5309 28
4248 5306 5310 28
4249 5311 5312 28
4250 5311 5313 28
4251 5311 5314 28
4252 5311 5315 28
4253 5316 5317 28
4254 5316 5318 28
4255 5316 5319 28
4256 5316 5320 28
4257 5321 5322 28
4258 5321 5323 28
4259 5321 5324 28
4260 5321 5325 28
4261 5326 5327 28
4262 5326 5328 28
4263 5326 5329 28
4264 5326 5330 28
4265 5331 5332 28
4266 5331 5333 28
4267 5331 5334 28
4268 5331 5335 28
4269 5336 5337 28
4270 5336 5338 28
4271 5336 5339 28
4272 5336 5340 28
4273 5341 5342 28
4274 5341 5343 28
4275 5341 5344 28
4276 5341 5345 28
4277 5346 5347 28
4278 5346 5348 28
4279 5346 5349 28
4280 5346 5350 28
4281 5351 5352 28
4282 5351 5353 28
4283 5351 5354 28
4284 5351 5355 28
4285 5356 5357 28
4286 5356 5358 28
4287 5356 5359 28
4288 5356 5360 28
4289 5361 5362 28
4290 5361 5363 28
4291 5361 5364 28
4292 5361 5365 28
4293 5366 5367 28
4294 5366 5368 28
4295 5366 5369 28
4296 5366 5370 28
4297 5371 5372 28
4298 5371 5373 28
4299 5371 5374 28
4300 5371 5375 28
4301 5376 5377 28
4302 5376 5378 28
4303 5376 5379 28
4304 5376 5380 28
4305 5381 5382 28
4306 5381 5383 28
4307 5381 5384 28
4308 5381 5385 28
4309 5386 5387 28
4310 5386 5388 28
4311 5386 5389 28
4312 5386 5390 28
4313 5391 5392 28
4314 5391 5393 28
4315 5391 5394 28
4316 5391 5395 28
4317 5396 5397 28
4318 5396 5398 28
4319 5396 5399 28
4320 5396 5400 28
4321 5401 5402 28
4322 5401 5403 28
4323 5401 5404 28
4324 5401 5405 28
4325 5406 5407 28
4326 5406 5408 28
4327 5406 5409 28
4328 5406 5410 28
4329 5411 5412 28
4330 5411 5413 28
4331 5411 5414 28
4332 5411 5415 28
4333 5416 5417 28
4334 5416 5418 28
4335 5416 5419 28
4336 5416 5420 28
4337 5421 5422 28
4338 5421 5423 28
4339 5421 5424 28
4340 5421 5425 28
4341 5426 5427 28
4342 5426 5428 28
4343 5426 5429 28
4344 5426 5430 28
4345 5431 5432 28
4346 5431 5433 28
4347 5431 5434 28
4348 5431 5435 28
4349 5436 5437 28
4350 5436 5438 28
4351 5436 5439 28
4352 5436 5440 28
4353 5441 5442 28
4354 5441 5443 28
4355 5441 5444 28
4356 5441 5445 28
4357 5446 5447 28
4358 5446 5448 28
4359 5446 5449 28
4360 5446 5450 28
4361 5451 5452 28
4362 5451 5453 28
4363 5451 5454 28
4364 5451 5455 28
4365 5456 5457 28
4366 5456 5458 28
4367 5456 5459 28
4368 5456 5460 28
4369 5461 5462 28
4370 5461 5463 28
4371 5461 5464 28
4372 5461 5465 28
4373 5466 5467 28
4374 5466 5468 28
4375 5466 5469 28
4376 5466 5470 28
4377 5471 5472 28
4378 5471 5473 28
4379 5471 5474 28
4380 5471 5475 28
4381 5476 5477 28
4382 5476 5478 28
4383 5476 5479 28
4384 5476 5480 28
4385 5481 5482 28
4386 5481 5483 28
4387 5481 5484 28
4388 5481 5485 28
4389 5486 5487 28
4390 5486 5488 28
4391 5486 5489 28
4392 5486 5490 28
4393 5491 5492 28
4394 5491 5493 28
4395 5491 5494 28
4396 5491 5495 28
4397 5496 5497 28
4398 5496 5498 28
4399 5496 5499 28
4400 5496 5500 28
4401 5501 5502 28
4402 5501 5503 28
4403 5501 5504 28
4404 5501 5505 28
4405 5506 5507 28
4406 5506 5508 28
4407 5506 5509 28
4408 5506 5510 28
4409 5511 5512 28
4410 5511 5513 28
4411 5511 5514 28
4412 5511 5515 28
4413 5516 5517 28
4414 5516 5518 28
4415 5516 5519 28
4416 5516 5520 28
4417 5521 5522 28
4418 5521 5523 28
4419 5521 5524 28
4420 5521 5525 28
4421 5526 5527 28
4422 5526 5528 28
4423 5526 5529 28
4424 5526 5530 28
4425 5531 5532 28
4426 5531 5533 28
4427 5531 5534 28
4428 5531 5535 28
4429 5536 5537 28
4430 5536 5538 28
4431 5536 5539 28
4432 5536 5540 28
4433 5541 5542 28
4434 5541 5543 28
4435 5541 5544 28
4436 5541 5545 28
4437 5546 5547 28
4438 5546 5548 28
4439 5546 5549 28
4440 5546 5550 28
4441 5551 5552 28
4442 5551 5553 28
4443 5551 5554 28
4444 5551 5555 28
4445 5556 5557 28
4446 5556 5558 28
4447 5556 5559 28
4448 5556 5560 28
4449 5561 5562 28
4450 5561 5563 28
4451 5561 5564 28
4452 5561 5565 28
4453 5566 5567 28
4454 5566 5568 28
4455 5566 5569 28
4456 5566 5570 28
4457 5571 5572 28
4458 5571 5573 28
4459 5571 5574 28
4460 5571 5575 28
4461 5576 5577 28
4462 5576 5578 28
4463 5576 5579 28
4464 5576 5580 28
4465 5581 5582 28
4466 5581 5583 28
4467 5581 5584 28
4468 5581 5585 28
4469 5586 5587 28
4470 5586 5588 28
4471 5586 5589 28
4472 5586 5590 28
4473 5591 5592 28
4474 5591 5593 28
4475 5591 5594 28
4476 5591 5595 28
4477 5596 5597 28
4478 5596 5598 28
4479 5596 5599 28
4480 5596 5600 28
4481 5601 5602 28
4482 5601 5603 28
4483 5601 5604 28
4484 5601 5605 28
4485 5606 5607 28
4486 5606 5608 28
4487 5606 5609 28
4488 5606 5610 28
4489 5611 5612 28
4490 5611 5613 28
4491 5611 5614 28
4492 5611 5615 28
4493 5616 5617 28
4494 5616 5618 28
4495 5616 5619 28
4496 5616 5620 28
4497 5621 5622 28
4498 5621 5623 28
4499 5621 5624 28
4500 5621 5625 28
4501 5626 5627 28
4502 5626 5628 28
4503 5626 5629 28
4504 5626 5630 28
4505 5631 5632 28
4506 5631 5633 28
4507 5631 5634 28
4508 5631 5635 28
4509 5636 5637 28
4510 5636 5638 28
4511 5636 5639 28
4512 5636 5640 28
4513 5641 5642 28
4514 5641 5643 28
4515 5641 5644 28
4516 5641 5645 28
4517 5646 5647 28
4518 5646 5648 28
4519 5646 5649 28
4520 5646 5650 28
4521 5651 5652 28
4522 5651 5653 28
4523 5651 5654 28
4524 5651 5655 28
4525 5656 5657 28
4526 5656 5658 28
4527 5656 5659 28
4528 5656 5660 28
4529 5661 5662 28
4530 5661 5663 28
4531 5661 5664 28
4532 5661 5665 28
4533 5666 5667 28
4534 5666 5668 28
4535 5666 5669 28
4536 5666 5670 28
4537 5671 5672 28
4538 5671 5673 28
4539 5671 5674 28
4540 5671 5675 28
4541 5676 5677 28
4542 5676 5678 28
4543 5676 5679 28
4544 5676 5680 28
4545 5681 5682 28
4546 5681 5683 28
4547 5681 5684 28
4548 5681 5685 28
4549 5686 5687 28
4550 5686 5688 28
4551 5686 5689 28
4552 5686 5690 28
4553 5691 5692 28
4554 5691 5693 28
4555 5691 5694 28
4556 5691 5695 28
4557 5696 5697 28
4558 5696 5698 28
4559 5696 5699 28
4560 5696 5700 28
4561 5701 5702 28
4562 5701 5703 28
4563 5701 5704 28
4564 5701 5705 28
4565 5706 5707 28
4566 5706 5708 28
4567 5706 5709 28
4568 5706 5710 28
4569 5711 5712 28
4570 5711 5713 28
4571 5711 5714 28
4572 5711 5715 28
4573 5716 5717 28
4574 5716 5718 28
4575 5716 5719 28
4576 5716 5720 28
4577 5721 5722 28
4578 5721 5723 28
4579 5721 5724 28
4580 5721 5725 28
4581 5726 5727 28
4582 5726 5728 28
4583 5726 5729 28
4584 5726 5730 28
4585 5731 5732 28
4586 5731 5733 28
4587 5731 5734 28
4588 5731 5735 28
4589 5736 5737 28
4590 5736 5738 28
4591 5736 5739 28
4592 5736 5740 28
4593 5741 5742 28
4594 5741 5743 28
4595 5741 5744 28
4596 5741 5745 28
4597 5746 5747 28
4598 5746 5748 28
4599 5746 5749 28
4600 5746 5750 28
4601 5751 5752 28
4602 5751 5753 28
4603 5751 5754 28
4604 5751 5755 28
4605 5756 5757 28
4606 5756 5758 28
4607 5756 5759 28
4608 5756 5760 28
4609 5761 5762 28
4610 5761 5763 28
4611 5761 5764 28
4612 5761 5765 28
4613 5766 5767 28
4614 5766 5768 28
4615 5766 5769 28
4616 5766 5770 28
4617 5771 5772 28
4618 5771 5773 28
4619 5771 5774 28
4620 5771 5775 28
4621 5776 5777 28
4622 5776 5778 28
4623 5776 5779 28
4624 5776 5780 28
4625 5781 5782 28
4626 5781 5783 28
4627 5781 5784 28
4628 5781 5785 28
4629 5786 5787 28
4630 5786 5788 28
4631 5786 5789 28
4632 5786 5790 28
4633 5791 5792 28
4634 5791 5793 28
4635 5791 5794 28
4636 5791 5795 28
4637 5796 5797 28
4638 5796 5798 28
4639 5796 5799 28
4640 5796 5800 28
4641 5801 5802 28
4642 5801 5803 28
4643 5801 5804 28
4644 5801 5805 28
4645 5806 5807 28
4646 5806 5808 28
4647 5806 5809 28
4648 5806 5810 28
4649 5811 5812 28
4650 5811 5813 28
4651 5811 5814 28
4652 5811 5815 28
4653 5816 5817 28
4654 5816 5818 28
4655 5816 5819 28
4656 5816 5820 28
4657 5821 5822 28
4658 5821 5823 28
4659 5821 5824 28
4660 5821 5825 28
4661 5826 5827 28
4662 5826 5828 28
4663 5826 5829 28
4664 5826 5830 28
4665 5831 5832 28
4666 5831 5833 28
4667 5831 5834 28
4668 5831 5835 28
4669 5836 5837 28
4670 5836 5838 28
4671 5836 5839 28
4672 5836 5840 28
4673 5841 5842 28
4674 5841 5843 28
4675 5841 5844 28
4676 5841 5845 28
4677 5846 5847 28
4678 5846 5848 28
4679 5846 5849 28
4680 5846 5850 28
4681 5851 5852 28
4682 5851 5853 28
4683 5851 5854 28
4684 5851 5855 28
4685 5856 5857 28
4686 5856 5858 28
4687 5856 5859 28
4688 5856 5860 28
4689 5861 5862 28
4690 5861 5863 28
4691 5861 5864 28
4692 5861 5865 28
4693 5866 5867 28
4694 5866 5868 28
4695 5866 5869 28
4696 5866 5870 28
4697 5871 5872 28
4698 5871 5873 28
4699 5871 5874 28
4700 5871 5875 28
4701 5876 5877 28
4702 5876 5878 28
4703 5876 5879 28
4704 5876 5880 28
4705 5881 5882 28
4706 5881 5883 28
4707 5881 5884 28
4708 5881 5885 28
4709 5886 5887 28
4710 5886 5888 28
4711 5886 5889 28
4712 5886 5890 28
4713 5891 5892 28
4714 5891 5893 28
4715 5891 5894 28
4716 5891 5895 28
4717 5896 5897 28
4718 5896 5898 28
4719 5896 5899 28
4720 5896 5900 28
4721 5901 5902 28
4722 5901 5903 28
4723 5901 5904 28
4724 5901 5905 28
4725 5906 5907 28
4726 5906 5908 28
4727 5906 5909 28
4728 5906 5910 28
4729 5911 5912 28
4730 5911 5913 28
4731 5911 5914 28
4732 5911 5915 28
4733 5916 5917 28
4734 5916 5918 28
4735 5916 5919 28
4736 5916 5920 28
4737 5921 5922 28
4738 5921 5923 28
4739 5921 5924 28
4740 5921 5925 28
4741 5926 5927 28
4742 5926 5928 28
4743 5926 5929 28
4744 5926 5930 28
4745 5931 5932 28
4746 5931 5933 28
4747 5931 5934 28
4748 5931 5935 28
4749 5936 5937 28
4750 5936 5938 28
4751 5936 5939 28
4752 5936 5940 28
4753 5941 5942 28
4754 5941 5943 28
4755 5941 5944 28
4756 5941 5945 28
4757 5946 5947 28
4758 5946 5948 28
4759 5946 5949 28
4760 5946 5950 28
4761 5951 5952 28
4762 5951 5953 28
4763 5951 5954 28
4764 5951 5955 28
4765 5956 5957 28
4766 5956 5958 28
4767 5956 5959 28
4768 5956 5960 28
4769 5961 5962 28
4770 5961 5963 28
4771 5961 5964 28
4772 5961 5965 28
4773 5966 5967 28
4774 5966 5968 28
4775 5966 5969 28
4776 5966 5970 28
4777 5971 5972 28
4778 5971 5973 28
4779 5971 5974 28
4780 5971 5975 28
4781 5976 5977 28
4782 5976 5978 28
4783 5976 5979 28
4784 5976 5980 28
4785 5981 5982 28
4786 5981 5983 28
4787 5981 5984 28
4788 5981 5985 28
4789 5986 5987 28
4790 5986 5988 28
4791 5986 5989 28
4792 5986 5990 28
4793 5991 5992 28
4794 5991 5993 28
4795 5991 5994 28
4796 5991 5995 28
4797 5996 5997 28
4798 5996 5998 28
4799 5996 5999 28
4800 5996 6000 28
4801 6001 6002 28
4802 6001 6003 28
4803 6001 6004 28
4804 6001 6005 28
4805 6006 6007 28
4806 6006 6008 28
4807 6006 6009 28
4808 6006 6010 28
4809 6011 6012 28
4810 6011 6013 28
4811 6011 6014 28
4812 6011 6015 28
4813 6016 6017 28
4814 6016 6018 28
4815 6016 6019 28
4816 6016 6020 28
4817 6021 6022 28
4818 6021 6023 28
4819 6021 6024 28
4820 6021 6025 28
4821 6026 6027 28
4822 6026 6028 28
4823 6026 6029 28
4824 6026 6030 28
4825 6031 6032 28
4826 6031 6033 28
4827 6031 6034 28
4828 6031 6035 28
4829 6036 6037 28
4830 6036 6038 28
4831 6036 6039 28
4832 6036 6040 28
4833 6041 6042 28
4834 6041 6043 28
4835 6041 6044 28
4836 6041 6045 28
4837 6046 6047 28
4838 6046 6048 28
4839 6046 6049 28
4840 6046 6050 28
4841 6051 6052 28
4842 6051 6053 28
4843 6051 6054 28
4844 6051 6055 28
4845 6056 6057 28
4846 6056 6058 28
4847 6056 6059 28
4848 6056 6060 28
4849 6061 6062 28
4850 6061 6063 28
4851 6061 6064 28
4852 6061 6065 28
4853 6066 6067 28
4854 6066 6068 28
4855 6066 6069 28
4856 6066 6070 28
4857 6071 6072 28
4858 6071 6073 28
4859 6071 6074 28
4860 6071 6075 28
4861 6076 6077 28
4862 6076 6078 28
4863 6076 6079 28
4864 6076 6080 28
4865 6081 6082 28
4866 6081 6083 28
4867 6081 6084 28
4868 6081 6085 28
4869 6086 6087 28
4870 6086 6088 28
4871 6086 6089 28
4872 6086 6090 28
4873 6091 6092 28
4874 6091 6093 28
4875 6091 6094 28
4876 6091 6095 28
4877 6096 6097 28
4878 6096 6098 28
4879 6096 6099 28
4880 6096 6100 28
4881 6101 6102 28
4882 6101 6103 28
4883 6101 6104 28
4884 6101 6105 28
4885 6106 6107 28
4886 6106 6108 28
4887 6106 6109 28
4888 6106 6110 28
4889 6111 6112 28
4890 6111 6113 28
4891 6111 6114 28
4892 6111 6115 28
4893 6116 6117 28
4894 6116 6118 28
4895 6116 6119 28
4896 6116 6120 28
4897 6121 6122 28
4898 6121 6123 28
4899 6121 6124 28
4900 6121 6125 28
4901 6126 6127 28
4902 6126 6128 28
4903 6126 6129 28
4904 6126 6130 28
4905 6131 6132 28
4906 6131 6133 28
4907 6131 6134 28
4908 6131 6135 28
4909 6136 6137 28
4910 6136 6138 28
4911 6136 6139 28
4912 6136 6140 28
4913 6141 6142 28
4914 6141 6143 28
4915 6141 6144 28
4916 6141 6145 28
4917 6146 6147 28
4918 6146 6148 28
4919 6146 6149 28
4920 6146 6150 28
4921 6151 6152 28
4922 6151 6153 28
4923 6151 6154 28
4924 6151 6155 28
4925 6156 6157 28
4926 6156 6158 28
4927 6156 6159 28
4928 6156 6160 28
4929 6161 6162 28
4930 6161 6163 28
4931 6161 6164 28
4932 6161 6165 28
4933 6166 6167 28
4934 6166 6168 28
4935 6166 6169 28
4936 6166 6170 28
4937 6171 6172 28
4938 6171 6173 28
4939 6171 6174 28
4940 6171 6175 28
4941 6176 6177 28
4942 6176 6178 28
4943 6176 6179 28
4944 6176 6180 28
4945 6181 6182 28
4946 6181 6183 28
4947 6181 6184 28
4948 6181 6185 28
4949 6186 6187 28
4950 6186 6188 28
4951 6186 6189 28
4952 6186 6190 28
4953 6191 6192 28
4954 6191 6193 28
4955 6191 6194 28
4956 6191 6195 28
4957 6196 6197 28
4958 6196 6198 28
4959 6196 6199 28
4960 6196 6200 28
4961 6201 6202 28
4962 6201 6203 28
4963 6201 6204 28
4964 6201 6205 28
4965 6206 6207 28
4966 6206 6208 28
4967 6206 6209 28
4968 6206 6210 28
4969 6211 6212 28
4970 6211 6213 28
4971 6211 6214 28
4972 6211 6215 28
4973 6216 6217 28
4974 6216 6218 28
4975 6216 6219 28
4976 6216 6220 28
4977 6221 6222 28
4978 6221 6223 28
4979 6221 6224 28
4980 6221 6225 28
4981 6226 6227 28
4982 6226 6228 28
4983 6226 6229 28
4984 6226 6230 28
4985 6231 6232 28
4986 6231 6233 28
4987 6231 6234 28
4988 6231 6235 28
4989 6236 6237 28
4990 6236 6238 28
4991 6236 6239 28
4992 6236 6240 28
4993 6241 6242 28
4994 6241 6243 28
4995 6241 6244 28
4996 6241 6245 28
4997 6246 6247 28
4998 6246 6248 28
4999 6246 6249 28
5000 6246 6250 28
5001 6251 6252 28
5002 6251 6253 28
5003 6251 6254 28
5004 6251 6255 28
5005 6256 6257 28
5006 6256 6258 28
5007 6256 6259 28
5008 6256 6260 28
5009 6261 6262 28
5010 6261 6263 28
5011 6261 6264 28
5012 6261 6265 28
5013 6266 6267 28
5014 6266 6268 28
5015 6266 6269 28
5016 6266 6270 28
5017 6271 6272 28
5018 6271 6273 28
5019 6271 6274 28
5020 6271 6275 28
5021 6276 6277 28
5022 6276 6278 28
5023 6276 6279 28
5024 6276 6280 28
5025 6281 6282 28
5026 6281 6283 28
5027 6281 6284 28
5028 6281 6285 28
5029 6286 6287 28
5030 6286 6288 28
5031 6286 6289 28
5032 6286 6290 28
5033 6291 6292 28
5034 6291 6293 28
5035 6291 6294 28
5036 6291 6295 28
5037 6296 6297 28
5038 6296 6298 28
5039 6296 6299 28
5040 6296 6300 28
5041 6301 6302 28
5042 6301 6303 28
5043 6301 6304 28
5044 6301 6305 28
5045 6306 6307 28
5046 6306 6308 28
5047 6306 6309 28
5048 6306 6310 28
5049 6311 6312 28
5050 6311 6313 28
5051 6311 6314 28
5052 6311 6315 28
5053 6316 6317 28
5054 6316 6318 28
5055 6316 6319 28
5056 6316 6320 28
5057 6321 6322 28
5058 6321 6323 28
5059 6321 6324 28
5060 6321 6325 28
5061 6326 6327 28
5062 6326 6328 28
5063 6326 6329 28
5064 6326 6330 28
5065 6331 6332 28
5066 6331 6333 28
5067 6331 6334 28
5068 6331 6335 28
5069 6336 6337 28
5070 6336 6338 28
5071 6336 6339 28
5072 6336 6340 28
5073 6341 6342 28
5074 6341 6343 28
5075 6341 6344 28
5076 6341 6345 28
5077 6346 6347 28
5078 6346 6348 28
5079 6346 6349 28
5080 6346 6350 28
5081 6351 6352 28
5082 6351 6353 28
5083 6351 6354 28
5084 6351 6355 28
5085 6356 6357 28
5086 6356 6358 28
5087 6356 6359 28
5088 6356 6360 28
5089 6361 6362 28
5090 6361 6363 28
5091 6361 6364 28
5092 6361 6365 28
5093 6366 6367 28
5094 6366 6368 28
5095 6366 6369 28
5096 6366 6370 28
5097 6371 6372 28
5098 6371 6373 28
5099 6371 6374 28
5100 6371 6375 28
5101 6376 6377 28
5102 6376 6378 28
5103 6376 6379 28
5104 6376 6380 28
5105 6381 6382 28
5106 6381 6383 28
5107 6381 6384 28
5108 6381 6385 28
5109 6386 6387 28
5110 6386 6388 28
5111 6386 6389 28
5112 6386 6390 28
5113 6391 6392 28
5114 6391 6393 28
5115 6391 6394 28
5116 6391 6395 28
5117 6396 6397 28
5118 6396 6398 28
5119 6396 6399 28
5120 6396 6400 28
5121 6401 6402 28
5122 6401 6403 28
5123 6401 6404 28
5124 6401 6405 28
5125 6406 6407 28
5126 6406 6408 28
5127 6406 6409 28
5128 6406 6410 28
5129 6411 6412 28
5130 6411 6413 28
5131 6411 6414 28
5132 6411 6415 28
5133 6416 6417 28
5134 6416 6418 28
5135 6416 6419 28
5136 6416 6420 28
5137 6421 6422 28
5138 6421 6423 28
5139 6421 6424 28
5140 6421 6425 28
5141 6426 6427 28
5142 6426 6428 28
5143 6426 6429 28
5144 6426 6430 28
5145 6431 6432 28
5146 6431 6433 28
5147 6431 6434 28
5148 6431 6435 28
5149 6436 6437 28
5150 6436 6438 28
5151 6436 6439 28
5152 6436 6440 28
5153 6441 6442 28
5154 6441 6443 28
5155 6441 6444 28
5156 6441 6445 28
5157 6446 6447 28
5158 6446 6448 28
5159 6446 6449 28
5160 6446 6450 28
5161 6451 6452 28
5162 6451 6453 28
5163 6451 6454 28
5164 6451 6455 28
5165 6456 6457 28
5166 6456 6458 28
5167 6456 6459 28
5168 6456 6460 28
5169 6461 6462 28
5170 6461 6463 28
5171 6461 6464 28
5172 6461 6465 28
5173 6466 6467 28
5174 6466 6468 28
5175 6466 6469 28
5176 6466 6470 28
5177 6471 6472 28
5178 6471 6473 28
5179 6471 6474 28
5180 6471 6475 28
5181 6476 6477 28
5182 6476 6478 28
5183 6476 6479 28
5184 6476 6480 28
5185 6481 6482 28
5186 6481 6483 28
5187 6481 6484 28
5188 6481 6485 28
5189 6486 6487 28
5190 6486 6488 28
5191 6486 6489 28
5192 6486 6490 28
5193 6491 6492 28
5194 6491 6493 28
5195 6491 6494 28
5196 6491 6495 28
5197 6496 6497 28
5198 6496 6498 28
5199 6496 6499 28
5200 6496 6500 28
5201 6501 6502 28
5202 6501 6503 28
5203 6501 6504 28
5204 6501 6505 28
5205 6506 6507 28
5206 6506 6508 28
5207 6506 6509 28
5208 6506 6510 28
5209 6511 6512 28
5210 6511 6513 28
5211 6511 6514 28
5212 6511 6515 28
5213 6516 6517 28
5214 6516 6518 28
5215 6516 6519 28
5216 6516 6520 28
5217 6521 6522 28
5218 6521 6523 28
5219 6521 6524 28
5220 6521 6525 28
5221 6526 6527 28
5222 6526 6528 28
5223 6526 6529 28
5224 6526 6530 28
5225 6531 6532 28
5226 6531 6533 28
5227 6531 6534 28
5228 6531 6535 28
5229 6536 6537 28
5230 6536 6538 28
5231 6536 6539 28
5232 6536 6540 28
5233 6541 6542 28
5234 6541 6543 28
5235 6541 6544 28
5236 6541 6545 28
5237 6546 6547 28
5238 6546 6548 28
5239 6546 6549 28
5240 6546 6550 28
5241 6551 6552 28
5242 6551 6553 28
5243 6551 6554 28
5244 6551 6555 28
5245 6556 6557 28
5246 6556 6558 28
5247 6556 6559 28
5248 6556 6560 28
5249 6561 6562 28
5250 6561 6563 28
5251 6561 6564 28
5252 6561 6565 28
5253 6566 6567 28
5254 6566 6568 28
5255 6566 6569 28
5256 6566 6570 28
5257 6571 6572 28
5258 6571 6573 28
5259 6571 6574 28
5260 6571 6575 28
5261 6576 6577 28
5262 6576 6578 28
5263 6576 6579 28
5264 6576 6580 28
5265 6581 6582 28
5266 6581 6583 28
5267 6581 6584 28
5268 6581 6585 28
5269 6586 6587 28
5270 6586 6588 28
5271 6586 6589 28
5272 6586 6590 28
5273 6591 6592 28
5274 6591 6593 28
5275 6591 6594 28
5276 6591 6595 28
5277 6596 6597 28
5278 6596 6598 28
5279 6596 6599 28
5280 6596 6600 28
5281 6601 6602 28
5282 6601 6603 28
5283 6601 6604 28
5284 6601 6605 28
5285 6606 6607 28
5286 6606 6608 28
5287 6606 6609 28
5288 6606 6610 28
5289 6611 6612 28
5290 6611 6613 28
5291 6611 6614 28
5292 6611 6615 28
5293 6616 6617 28
5294 6616 6618 28
5295 6616 6619 28
5296 6616 6620 28
5297 6621 6622 28
5298 6621 6623 28
5299 6621 6624 28
5300 6621 6625 28
5301 6626 6627 28
5302 6626 6628 28
5303 6626 6629 28
5304 6626 6630 28
5305 6631 6632 28
5306 6631 6633 28
5307 6631 6634 28
5308 6631 6635 28
5309 6636 6637 28
5310 6636 6638 28
5311 6636 6639 28
5312 6636 6640 28
5313 6641 6642 28
5314 6641 6643 28
5315 6641 6644 28
5316 6641 6645 28
5317 6646 6647 28
5318 6646 6648 28
5319 6646 6649 28
5320 6646 6650 28
5321 6651 6652 28
5322 6651 6653 28
5323 6651 6654 28
5324 6651 6655 28
5325 6656 6657 28
5326 6656 6658 28
5327 6656 6659 28
5328 6656 6660 28
5329 6661 6662 28
5330 6661 6663 28
5331 6661 6664 28
5332 6661 6665 28
5333 6666 6667 28
5334 6666 6668 28
5335 6666 6669 28
5336 6666 6670 28
5337 6671 6672 28
5338 6671 6673 28
5339 6671 6674 28
5340 6671 6675 28
5341 6676 6677 28
5342 6676 6678 28
5343 6676 6679 28
5344 6676 6680 28
5345 6681 6682 28
5346 6681 6683 28
5347 6681 6684 28
5348 6681 6685 28
5349 6686 6687 28
5350 6686 6688 28
5351 6686 6689 28
5352 6686 6690 28
5353 6691 6692 28
5354 6691 6693 28
5355 6691 6694 28
5356 6691 6695 28
5357 6696 6697 28
5358 6696 6698 28
5359 6696 6699 28
5360 6696 6700 28
5361 6701 6702 28
5362 6701 6703 28
5363 6701 6704 28
5364 6701 6705 28
5365 6706 6707 28
5366 6706 6708 28
5367 6706 6709 28
5368 6706 6710 28
5369 6711 6712 28
5370 6711 6713 28
5371 6711 6714 28
5372 6711 6715 28
5373 6716 6717 28
5374 6716 6718 28
5375 6716 6719 28
5376 6716 6720 28
5377 6721 6722 28
5378 6721 6723 28
5379 6721 6724 28
5380 6721 6725 28
5381 6726 6727 28
5382 6726 6728 28
5383 6726 6729 28
5384 6726 6730 28
5385 6731 6732 28
5386 6731 6733 28
5387 6731 6734 28
5388 6731 6735 28
5389 6736 6737 28
5390 6736 6738 28
5391 6736 6739 28
5392 6736 6740 28
5393 6741 6742 28
5394 6741 6743 28
5395 6741 6744 28
5396 6741 6745 28
5397 6746 6747 28
5398 6746 6748 28
5399 6746 6749 28
5400 6746 6750 28
5401 6751 6752 28
5402 6751 6753 28
5403 6751 6754 28
5404 6751 6755 28
5405 6756 6757 28
5406 6756 6758 28
5407 6756 6759 28
5408 6756 6760 28
5409 6761 6762 28
5410 6761 6763 28
5411 6761 6764 28
5412 6761 6765 28
5413 6766 6767 28
5414 6766 6768 28
5415 6766 6769 28
5416 6766 6770 28
5417 6771 6772 28
5418 6771 6773 28
5419 6771 6774 28
5420 6771 6775 28
5421 6776 6777 28
5422 6776 6778 28
5423 6776 6779 28
5424 6776 6780 28
5425 6781 6782 28
5426 6781 6783 28
5427 6781 6784 28
5428 6781 6785 28
5429 6786 6787 28
5430 6786 6788 28
5431 6786 6789 28
5432 6786 6790 28
5433 6791 6792 28
5434 6791 6793 28
5435 6791 6794 28
5436 6791 6795 28
5437 6796 6797 28
5438 6796 6798 28
5439 6796 6799 28
5440 6796 6800 28
5441 6801 6802 28
5442 6801 6803 28
5443 6801 6804 28
5444 6801 6805 28
5445 6806 6807 28
5446 6806 6808 28
5447 6806 6809 28
5448 6806 6810 28
5449 6811 6812 28
5450 6811 6813 28
5451 6811 6814 28
5452 6811 6815 28
5453 6816 6817 28
5454 6816 6818 28
5455 6816 6819 28
5456 6816 6820 28
5457 6821 6822 28
5458 6821 6823 28
5459 6821 6824 28
5460 6821 6825 28
5461 6826 6827 28
5462 6826 6828 28
5463 6826 6829 28
5464 6826 6830 28
5465 6831 6832 28
5466 6831 6833 28
5467 6831 6834 28
5468 6831 6835 28
5469 6836 6837 28
5470 6836 6838 28
5471 6836 6839 28
5472 6836 6840 28
5473 6841 6842 28
5474 6841 6843 28
5475 6841 6844 28
5476 6841 6845 28
5477 6846 6847 28
5478 6846 6848 28
5479 6846 6849 28
5480 6846 6850 28
5481 6851 6852 28
5482 6851 6853 28
5483 6851 6854 28
5484 6851 6855 28
5485 6856 6857 28
5486 6856 6858 28
5487 6856 6859 28
5488 6856 6860 28
5489 6861 6862 28
5490 6861 6863 28
5491 6861 6864 28
5492 6861 6865 28
5493 6866 6867 28
5494 6866 6868 28
5495 6866 6869 28
5496 6866 6870 28
5497 6871 6872 28
5498 6871 6873 28
5499 6871 6874 28
5500 6871 6875 28
5501 6876 6877 28
5502 6876 6878 28
5503 6876 6879 28
5504 6876 6880 28
5505 6881 6882 28
5506 6881 6883 28
5507 6881 6884 28
5508 6881 6885 28
5509 6886 6887 28
5510 6886 6888 28
5511 6886 6889 28
5512 6886 6890 28
5513 6891 6892 28
5514 6891 6893 28
5515 6891 6894 28
5516 6891 6895 28
5517 6896 6897 28
5518 6896 6898 28
5519 6896 6899 28
5520 6896 6900 28
5521 6901 6902 28
5522 6901 6903 28
5523 6901 6904 28
5524 6901 6905 28
5525 6906 6907 28
5526 6906 6908 28
5527 6906 6909 28
5528 6906 6910 28
5529 6911 6912 28
5530 6911 6913 28
5531 6911 6914 28
5532 6911 6915 28
5533 6916 6917 28
5534 6916 6918 28
5535 6916 6919 28
5536 6916 6920 28
5537 6921 6922 28
5538 6921 6923 28
5539 6921 6924 28
5540 6921 6925 28
5541 6926 6927 28
5542 6926 6928 28
5543 6926 6929 28
5544 6926 6930 28
5545 6931 6932 28
5546 6931 6933 28
5547 6931 6934 28
5548 6931 6935 28
5549 6936 6937 28
5550 6936 6938 28
5551 6936 6939 28
5552 6936 6940 28
5553 6941 6942 28
5554 6941 6943 28
5555 6941 6944 28
5556 6941 6945 28
5557 6946 6947 28
5558 6946 6948 28
5559 6946 6949 28
5560 6946 6950 28
5561 6951 6952 28
5562 6951 6953 28
5563 6951 6954 28
5564 6951 6955 28
5565 6956 6957 28
5566 6956 6958 28
5567 6956 6959 28
5568 6956 6960 28
5569 6961 6962 28
5570 6961 6963 28
5571 6961 6964 28
5572 6961 6965 28
5573 6966 6967 28
5574 6966 6968 28
5575 6966 6969 28
5576 6966 6970 28
5577 6971 6972 28
5578 6971 6973 28
5579 6971 6974 28
5580 6971 6975 28
5581 6976 6977 28
5582 6976 6978 28
5583 6976 6979 28
5584 6976 6980 28
5585 6981 6982 28
5586 6981 6983 28
5587 6981 6984 28
5588 6981 6985 28
5589 6986 6987 28
5590 6986 6988 28
5591 6986 6989 28
5592 6986 6990 28
5593 6991 6992 28
5594 6991 6993 28
5595 6991 6994 28
5596 6991 6995 28
5597 6996 6997 28
5598 6996 6998 28
5599 6996 6999 28
5600 6996 7000 28
5601 7001 7002 28
5602 7001 7003 28
5603 7001 7004 28
5604 7001 7005 28
5605 7006 7007 28
5606 7006 7008 28
5607 7006 7009 28
5608 7006 7010 28
5609 7011 7012 28
5610 7011 7013 28
5611 7011 7014 28
5612 7011 7015 28
5613 7016 7017 28
5614 7016 7018 28
5615 7016 7019 28
5616 7016 7020 28
5617 7021 7022 28
5618 7021 7023 28
5619 7021 7024 28
5620 7021 7025 28
5621 7026 7027 28
5622 7026 7028 28
5623 7026 7029 28
5624 7026 7030 28
5625 7031 7032 28
5626 7031 7033 28
5627 7031 7034 28
5628 7031 7035 28
5629 7036 7037 28
5630 7036 7038 28
5631 7036 7039 28
5632 7036 7040 28
5633 7041 7042 28
5634 7041 7043 28
5635 7041 7044 28
5636 7041 7045 28
5637 7046 7047 28
5638 7046 7048 28
5639 7046 7049 28
5640 7046 7050 28
5641 7051 7052 28
5642 7051 7053 28
5643 7051 7054 28
5644 7051 7055 28
5645 7056 7057 28
5646 7056 7058 28
5647 7056 7059 28
5648 7056 7060 28
5649 7061 7062 28
5650 7061 7063 28
5651 7061 7064 28
5652 7061 7065 28
5653 7066 7067 28
5654 7066 7068 28
5655 7066 7069 28
5656 7066 7070 28
5657 7071 7072 28
5658 7071 7073 28
5659 7071 7074 28
5660 7071 7075 28
5661 7076 7077 28
5662 7076 7078 28
5663 7076 7079 28
5664 7076 7080 28
5665 7081 7082 28
5666 7081 7083 28
5667 7081 7084 28
5668 7081 7085 28
5669 7086 7087 28
5670 7086 7088 28
5671 7086 7089 28
5672 7086 7090 28
5673 7091 7092 28
5674 7091 7093 28
5675 7091 7094 28
5676 7091 7095 28
5677 7096 7097 28
5678 7096 7098 28
5679 7096 7099 28
5680 7096 7100 28
5681 7101 7102 28
5682 7101 7103 28
5683 7101 7104 28
5684 7101 7105 28
5685 7106 7107 28
5686 7106 7108 28
5687 7106 7109 28
5688 7106 7110 28
5689 7111 7112 28
5690 7111 7113 28
5691 7111 7114 28
5692 7111 7115 28
5693 7116 7117 28
5694 7116 7118 28
5695 7116 7119 28
5696 7116 7120 28
5697 7121 7122 28
5698 7121 7123 28
5699 7121 7124 28
5700 7121 7125 28
5701 7126 7127 28
5702 7126 7128 28
5703 7126 7129 28
5704 7126 7130 28
5705 7131 7132 28
5706 7131 7133 28
5707 7131 7134 28
5708 7131 7135 28
5709 7136 7137 28
5710 7136 7138 28
5711 7136 7139 28
5712 7136 7140 28
5713 7141 7142 28
5714 7141 7143 28
5715 7141 7144 28
5716 7141 7145 28
5717 7146 7147 28
5718 7146 7148 28
5719 7146 7149 28
5720 7146 7150 28
5721 7151 7152 28
5722 7151 7153 28
5723 7151 7154 28
5724 7151 7155 28
5725 7156 7157 28
5726 7156 7158 28
5727 7156 7159 28
5728 7156 7160 28
5729 7161 7162 28
5730 7161 7163 28
5731 7161 7164 28
5732 7161 7165 28
5733 7166 7167 28
5734 7166 7168 28
5735 7166 7169 28
5736 7166 7170 28
5737 7171 7172 28
5738 7171 7173 28
5739 7171 7174 28
5740 7171 7175 28
5741 7176 7177 28
5742 7176 7178 28
5743 7176 7179 28
5744 7176 7180 28
5745 7181 7182 28
5746 7181 7183 28
5747 7181 7184 28
5748 7181 7185 28
5749 7186 7187 28
5750 7186 7188 28
5751 7186 7189 28
5752 7186 7190 28
5753 7191 7192 28
5754 7191 7193 28
5755 7191 7194 28
5756 7191 7195 28
5757 7196 7197 28
5758 7196 7198 28
5759 7196 7199 28
5760 7196 7200 28
5761 7201 7202 28
5762 7201 7203 28
5763 7201 7204 28
5764 7201 7205 28
5765 7206 7207 28
5766 7206 7208 28
5767 7206 7209 28
5768 7206 7210 28
5769 7211 7212 28
5770 7211 7213 28
5771 7211 7214 28
5772 7211 7215 28
5773 7216 7217 28
5774 7216 7218 28
5775 7216 7219 28
5776 7216 7220 28
5777 7221 7222 28
5778 7221 7223 28
5779 7221 7224 28
5780 7221 7225 28
5781 7226 7227 28
5782 7226 7228 28
5783 7226 7229 28
5784 7226 7230 28
5785 7231 7232 28
5786 7231 7233 28
5787 7231 7234 28
5788 7231 7235 28
5789 7236 7237 28
5790 7236 7238 28
5791 7236 7239 28
5792 7236 7240 28
5793 7241 7242 28
5794 7241 7243 28
5795 7241 7244 28
5796 7241 7245 28
5797 7246 7247 28
5798 7246 7248 28
5799 7246 7249 28
5800 7246 7250 28
5801 7251 7252 28
5802 7251 7253 28
5803 7251 7254 28
5804 7251 7255 28
5805 7256 7257 28
5806 7256 7258 28
5807 7256 7259 28
5808 7256 7260 28
5809 7261 7262 28
5810 7261 7263 28
5811 7261 7264 28
5812 7261 7265 28
5813 7266 7267 28
5814 7266 7268 28
5815 7266 7269 28
5816 7266 7270 28
5817 7271 7272 28
5818 7271 7273 28
5819 7271 7274 28
5820 7271 7275 28
5821 7276 7277 28
5822 7276 7278 28
5823 7276 7279 28
5824 7276 7280 28
5825 7281 7282 28
5826 7281 7283 28
5827 7281 7284 28
5828 7281 7285 28
5829 7286 7287 28
5830 7286 7288 28
5831 7286 7289 28
5832 7286 7290 28
5833 7291 7292 28
5834 7291 7293 28
5835 7291 7294 28
5836 7291 7295 28
5837 7296 7297 28
5838 7296 7298 28
5839 7296 7299 28
5840 7296 7300 28
5841 7301 7302 28
5842 7301 7303 28
5843 7301 7304 28
5844 7301 7305 28
5845 7306 7307 28
5846 7306 7308 28
5847 7306 7309 28
5848 7306 7310 28
5849 7311 7312 28
5850 7311 7313 28
5851 7311 7314 28
5852 7311 7315 28
5853 7316 7317 28
5854 7316 7318 28
5855 7316 7319 28
5856 7316 7320 28
5857 7321 7322 28
5858 7321 7323 28
5859 7321 7324 28
5860 7321 7325 28
5861 7326 7327 28
5862 7326 7328 28
5863 7326 7329 28
5864 7326 7330 28
5865 7331 7332 28
5866 7331 7333 28
5867 7331 7334 28
5868 7331 7335 28
5869 7336 7337 28
5870 7336 7338 28
5871 7336 7339 28
5872 7336 7340 28
5873 7341 7342 28
5874 7341 7343 28
5875 7341 7344 28
5876 7341 7345 28
5877 7346 7347 28
5878 7346 7348 28
5879 7346 7349 28
5880 7346 7350 28
5881 7351 7352 28
5882 7351 7353 28
5883 7351 7354 28
5884 7351 7355 28
5885 7356 7357 28
5886 7356 7358 28
5887 7356 7359 28
5888 7356 7360 28
5889 7361 7362 28
5890 7361 7363 28
5891 7361 7364 28
5892 7361 7365 28
5893 7366 7367 28
5894 7366 7368 28
5895 7366 7369 28
5896 7366 7370 28
5897 7371 7372 28
5898 7371 7373 28
5899 7371 7374 28
5900 7371 7375 28
5901 7376 7377 28
5902 7376 7378 28
5903 7376 7379 28
5904 7376 7380 28
5905 7381 7382 28
5906 7381 7383 28
5907 7381 7384 28
5908 7381 7385 28
5909 7386 7387 28
5910 7386 7388 28
5911 7386 7389 28
5912 7386 7390 28
5913 7391 7392 28
5914 7391 7393 28
5915 7391 7394 28
5916 7391 7395 28
5917 7396 7397 28
5918 7396 7398 28
5919 7396 7399 28
5920 7396 7400 28
5921 7401 7402 28
5922 7401 7403 28
5923 7401 7404 28
5924 7401 7405 28
5925 7406 7407 28
5926 7406 7408 28
5927 7406 7409 28
5928 7406 7410 28
5929 7411 7412 28
5930 7411 7413 28
5931 7411 7414 28
5932 7411 7415 28
5933 7416 7417 28
5934 7416 7418 28
5935 7416 7419 28
5936 7416 7420 28
5937 7421 7422 28
5938 7421 7423 28
5939 7421 7424 28
5940 7421 7425 28
5941 7426 7427 28
5942 7426 7428 28
5943 7426 7429 28
5944 7426 7430 28
5945 7431 7432 28
5946 7431 7433 28
5947 7431 7434 28
5948 7431 7435 28
5949 7436 7437 28
5950 7436 7438 28
5951 7436 7439 28
5952 7436 7440 28
5953 7441 7442 28
5954 7441 7443 28
5955 7441 7444 28
5956 7441 7445 28
5957 7446 7447 28
5958 7446 7448 28
5959 7446 7449 28
5960 7446 7450 28
5961 7451 7452 28
5962 7451 7453 28
5963 7451 7454 28
5964 7451 7455 28
5965 7456 7457 28
5966 7456 7458 28
5967 7456 7459 28
5968 7456 7460 28
5969 7461 7462 28
5970 7461 7463 28
5971 7461 7464 28
5972 7461 7465 28
5973 7466 7467 28
5974 7466 7468 28
5975 7466 7469 28
5976 7466 7470 28
5977 7471 7472 28
5978 7471 7473 28
5979 7471 7474 28
5980 7471 7475 28
5981 7476 7477 28
5982 7476 7478 28
5983 7476 7479 28
5984 7476 7480 28
5985 7481 7482 28
5986 7481 7483 28
5987 7481 7484 28
5988 7481 7485 28
5989 7486 7487 28
5990 7486 7488 28
5991 7486 7489 28
5992 7486 7490 28
5993 7491 7492 28
5994 7491 7493 28
5995 7491 7494 28
5996 7491 7495 28
5997 7496 7497 28
5998 7496 7498 28
5999 7496 7499 28
6000 7496 7500 28
6001 7501 7502 28
6002 7501 7503 28
6003 7501 7504 28
6004 7501 7505 28
6005 7506 7507 28
6006 7506 7508 28
6007 7506 7509 28
6008 7506 7510 28
6009 7511 7512 28
6010 7511 7513 28
6011 7511 7514 28
6012 7511 7515 28
6013 7516 7517 28
6014 7516 7518 28
6015 7516 7519 28
6016 7516 7520 28
6017 7521 7522 28
6018 7521 7523 28
6019 7521 7524 28
6020 7521 7525 28
6021 7526 7527 28
6022 7526 7528 28
6023 7526 7529 28
6024 7526 7530 28
6025 7531 7532 28
6026 7531 7533 28
6027 7531 7534 28
6028 7531 7535 28
6029 7536 7537 28
6030 7536 7538 28
6031 7536 7539 28
6032 7536 7540 28
6033 7541 7542 28
6034 7541 7543 28
6035 7541 7544 28
6036 7541 7545 28
6037 7546 7547 28
6038 7546 7548 28
6039 7546 7549 28
6040 7546 7550 28
6041 7551 7552 28
6042 7551 7553 28
6043 7551 7554 28
6044 7551 7555 28
6045 7556 7557 28
6046 7556 7558 28
6047 7556 7559 28
6048 7556 7560 28
6049 7561 7562 28
6050 7561 7563 28
6051 7561 7564 28
6052 7561 7565 28
6053 7566 7567 28
6054 7566 7568 28
6055 7566 7569 28
6056 7566 7570 28
6057 7571 7572 28
6058 7571 7573 28
6059 7571 7574 28
6060 7571 7575 28
6061 7576 7577 28
6062 7576 7578 28
6063 7576 7579 28
6064 7576 7580 28
6065 7581 7582 28
6066 7581 7583 28
6067 7581 7584 28
6068 7581 7585 28
6069 7586 7587 28
6070 7586 7588 28
6071 7586 7589 28
6072 7586 7590 28
6073 7591 7592 28
6074 7591 7593 28
6075 7591 7594 28
6076 7591 7595 28
6077 7596 7597 28
6078 7596 7598 28
6079 7596 7599 28
6080 7596 7600 28
6081 7601 7602 28
6082 7601 7603 28
6083 7601 7604 28
6084 7601 7605 28
6085 7606 7607 28
6086 7606 7608 28
6087 7606 7609 28
6088 7606 7610 28
6089 7611 7612 28
6090 7611 7613 28
6091 7611 7614 28
6092 7611 7615 28
6093 7616 7617 28
6094 7616 7618 28
6095 7616 7619 28
6096 7616 7620 28
6097 7621 7622 28
6098 7621 7623 28
6099 7621 7624 28
6100 7621 7625 28
6101 7626 7627 28
6102 7626 7628 28
6103 7626 7629 28
6104 7626 7630 28
6105 7631 7632 28
6106 7631 7633 28
6107 7631 7634 28
6108 7631 7635 28
6109 7636 7637 28
6110 7636 7638 28
6111 7636 7639 28
6112 7636 7640 28
6113 7641 7642 28
6114 7641 7643 28
6115 7641 7644 28
6116 7641 7645 28
6117 7646 7647 28
6118 7646 7648 28
6119 7646 7649 28
6120 7646 7650 28
6121 7651 7652 28
6122 7651 7653 28
6123 7651 7654 28
6124 7651 7655 28
6125 7656 7657 28
6126 7656 7658 28
6127 7656 7659 28
6128 7656 7660 28
6129 7661 7662 28
6130 7661 7663 28
6131 7661 7664 28
6132 7661 7665 28
6133 7666 7667 28
6134 7666 7668 28
6135 7666 7669 28
6136 7666 7670 28
6137 7671 7672 28
6138 7671 7673 28
6139 7671 7674 28
6140 7671 7675 28
6141 7676 7677 28
6142 7676 7678 28
6143 7676 7679 28
6144 7676 7680 28
6145 7681 7682 28
6146 7681 7683 28
6147 7681 7684 28
6148 7681 7685 28
6149 7686 7687 28
6150 7686 7688 28
6151 7686 7689 28
6152 7686 7690 28
6153 7691 7692 28
6154 7691 7693 28
6155 7691 7694 28
6156 7691 7695 28
6157 7696 7697 28
6158 7696 7698 28
6159 7696 7699 28
6160 7696 7700 28
6161 7701 7702 28
6162 7701 7703 28
6163 7701 7704 28
6164 7701 7705 28
6165 7706 7707 28
6166 7706 7708 28
6167 7706 7709 28
6168 7706 7710 28
6169 7711 7712 28
6170 7711 7713 28
6171 7711 7714 28
6172 7711 7715 28
6173 7716 7717 28
6174 7716 7718 28
6175 7716 7719 28
6176 7716 7720 28
6177 7721 7722 28
6178 7721 7723 28
6179 7721 7724 28
6180 7721 7725 28
6181 7726 7727 28
6182 7726 7728 28
6183 7726 7729 28
6184 7726 7730 28
6185 7731 7732 28
6186 7731 7733 28
6187 7731 7734 28
6188 7731 7735 28
6189 7736 7737 28
6190 7736 7738 28
6191 7736 7739 28
6192 7736 7740 28
6193 7741 7742 28
6194 7741 7743 28
6195 7741 7744 28
6196 7741 7745 28
6197 7746 7747 28
6198 7746 7748 28
6199 7746 7749 28
6200 7746 7750 28
6201 7751 7752 28
6202 7751 7753 28
6203 7751 7754 28
6204 7751 7755 28
6205 7756 7757 28
6206 7756 7758 28
6207 7756 7759 28
6208 7756 7760 28
6209 7761 7762 28
6210 7761 7763 28
6211 7761 7764 28
6212 7761 7765 28
6213 7766 7767 28
6214 7766 7768 28
6215 7766 7769 28
6216 7766 7770 28
6217 7771 7772 28
6218 7771 7773 28
6219 7771 7774 28
6220 7771 7775 28
6221 7776 7777 28
6222 7776 7778 28
6223 7776 7779 28
6224 7776 7780 28
6225 7781 7782 28
6226 7781 7783 28
6227 7781 7784 28
6228 7781 7785 28
6229 7786 7787 28
6230 7786 7788 28
6231 7786 7789 28
6232 7786 7790 28
6233 7791 7792 28
6234 7791 7793 28
6235 7791 7794 28
6236 7791 7795 28
6237 7796 7797 28
6238 7796 7798 28
6239 7796 7799 28
6240 7796 7800 28
6241 7801 7802 28
6242 7801 7803 28
6243 7801 7804 28
6244 7801 7805 28
6245 7806 7807 28
6246 7806 7808 28
6247 7806 7809 28
6248 7806 7810 28
6249 7811 7812 28
6250 7811 7813 28
6251 7811 7814 28
6252 7811 7815 28
6253 7816 7817 28
6254 7816 7818 28
6255 7816 7819 28
6256 7816 7820 28
6257 7821 7822 28
6258 7821 7823 28
6259 7821 7824 28
6260 7821 7825 28
6261 7826 7827 28
6262 7826 7828 28
6263 7826 7829 28
6264 7826 7830 28
6265 7831 7832 28
6266 7831 7833 28
6267 7831 7834 28
6268 7831 7835 28
6269 7836 7837 28
6270 7836 7838 28
6271 7836 7839 28
6272 7836 7840 28
6273 7841 7842 28
6274 7841 7843 28
6275 7841 7844 28
6276 7841 7845 28
6277 7846 7847 28
6278 7846 7848 28
6279 7846 7849 28
6280 7846 7850 28
6281 7851 7852 28
6282 7851 7853 28
6283 7851 7854 28
6284 7851 7855 28
6285 7856 7857 28
6286 7856 7858 28
6287 7856 7859 28
6288 7856 7860 28
6289 7861 7862 28
6290 7861 7863 28
6291 7861 7864 28
6292 7861 7865 28
6293 7866 7867 28
6294 7866 7868 28
6295 7866 7869 28
6296 7866 7870 28
6297 7871 7872 28
6298 7871 7873 28
6299 7871 7874 28
6300 7871 7875 28
6301 7876 7877 28
6302 7876 7878 28
6303 7876 7879 28
6304 7876 7880 28
6305 7881 7882 28
6306 7881 7883 28
6307 7881 7884 28
6308 7881 7885 28
6309 7886 7887 28
6310 7886 7888 28
6311 7886 7889 28
6312 7886 7890 28
6313 7891 7892 28
6314 7891 7893 28
6315 7891 7894 28
6316 7891 7895 28
6317 7896 7897 28
6318 7896 7898 28
6319 7896 7899 28
6320 7896 7900 28
6321 7901 7902 28
6322 7901 7903 28
6323 7901 7904 28
6324 7901 7905 28
6325 7906 7907 28
6326 7906 7908 28
6327 7906 7909 28
6328 7906 7910 28
6329 7911 7912 28
6330 7911 7913 28
6331 7911 7914 28
6332 7911 7915 28
6333 7916 7917 28
6334 7916 7918 28
6335 7916 7919 28
6336 7916 7920 28
6337 7921 7922 28
6338 7921 7923 28
6339 7921 7924 28
6340 7921 7925 28
6341 7926 7927 28
6342 7926 7928 28
6343 7926 7929 28
6344 7926 7930 28
6345 7931 7932 28
6346 7931 7933 28
6347 7931 7934 28
6348 7931 7935 28
6349 7936 7937 28
6350 7936 7938 28
6351 7936 7939 28
6352 7936 7940 28
6353 7941 7942 28
6354 7941 7943 28
6355 7941 7944 28
6356 7941 7945 28
6357 7946 7947 28
6358 7946 7948 28
6359 7946 7949 28
6360 7946 7950 28
6361 7951 7952 28
6362 7951 7953 28
6363 7951 7954 28
6364 7951 7955 28
6365 7956 7957 28
6366 7956 7958 28
6367 7956 7959 28
6368 7956 7960 28
6369 7961 7962 28
6370 7961 7963 28
6371 7961 7964 28
6372 7961 7965 28
6373 7966 7967 28
6374 7966 7968 28
6375 7966 7969 28
6376 7966 7970 28
6377 7971 7972 28
6378 7971 7973 28
6379 7971 7974 28
6380 7971 7975 28
6381 7976 7977 28
6382 7976 7978 28
6383 7976 7979 28
6384 7976 7980 28
6385 7981 7982 28
6386 7981 7983 28
6387 7981 7984 28
6388 7981 7985 28
6389 7986 7987 28
6390 7986 7988 28
6391 7986 7989 28
6392 7986 7990 28
6393 7991 7992 28
6394 7991 7993 28
6395 7991 7994 28
6396 7991 7995 28
6397 7996 7997 28
6398 7996 7998 28
6399 7996 7999 28
6400 7996 8000 28
6401 8001 8002 28
6402 8001 8003 28
6403 8001 8004 28
6404 8001 8005 28
6405 8006 8007 28
6406 8006 8008 28
6407 8006 8009 28
6408 8006 8010 28
6409 8011 8012 28
6410 8011 8013 28
6411 8011 8014 28
6412 8011 8015 28
6413 8016 8017 28
6414 8016 8018 28
6415 8016 8019 28
6416 8016 8020 28
6417 8021 8022 28
6418 8021 8023 28
6419 8021 8024 28
6420 8021 8025 28
6421 8026 8027 28
6422 8026 8028 28
6423 8026 8029 28
6424 8026 8030 28
6425 8031 8032 28
6426 8031 8033 28
6427 8031 8034 28
6428 8031 8035 28
6429 8036 8037 28
6430 8036 8038 28
6431 8036 8039 28
6432 8036 8040 28
6433 8041 8042 28
6434 8041 8043 28
6435 8041 8044 28
6436 8041 8045 28
6437 8046 8047 28
6438 8046 8048 28
6439 8046 8049 28
6440 8046 8050 28
6441 8051 8052 28
6442 8051 8053 28
6443 8051 8054 28
6444 8051 8055 28
6445 8056 8057 28
6446 8056 8058 28
6447 8056 8059 28
6448 8056 8060 28
6449 8061 8062 28
6450 8061 8063 28
6451 8061 8064 28
6452 8061 8065 28
6453 8066 8067 28
6454 8066 8068 28
6455 8066 8069 28
6456 8066 8070 28
6457 8071 8072 28
6458 8071 8073 28
6459 8071 8074 28
6460 8071 8075 28
6461 8076 8077 28
6462 8076 8078 28
6463 8076 8079 28
6464 8076 8080 28
6465 8081 8082 28
6466 8081 8083 28
6467 8081 8084 28
6468 8081 8085 28
6469 8086 8087 28
6470 8086 8088 28
6471 8086 8089 28
6472 8086 8090 28
6473 8091 8092 28
6474 8091 8093 28
6475 8091 8094 28
6476 8091 8095 28
6477 8096 8097 28
6478 8096 8098 28
6479 8096 8099 28
6480 8096 8100 28
6481 8101 8102 28
6482 8101 8103 28
6483 8101 8104 28
6484 8101 8105 28
6485 8106 8107 28
6486 8106 8108 28
6487 8106 8109 28
6488 8106 8110 28
6489 8111 8112 28
6490 8111 8113 28
6491 8111 8114 28
6492 8111 8115 28
6493 8116 8117 28
6494 8116 8118 28
6495 8116 8119 28
6496 8116 8120 28
6497 8121 8122 28
6498 8121 8123 28
6499 8121 8124 28
6500 8121 8125 28
6501 8126 8127 28
6502 8126 8128 28
6503 8126 8129 28
6504 8126 8130 28
6505 8131 8132 28
6506 8131 8133 28
6507 8131 8134 28
6508 8131 8135 28
6509 8136 8137 28
6510 8136 8138 28
6511 8136 8139 28
6512 8136 8140 28
6513 8141 8142 28
6514 8141 8143 28
6515 8141 8144 28
6516 8141 8145 28
6517 8146 8147 28
6518 8146 8148 28
6519 8146 8149 28
6520 8146 8150 28
6521 8151 8152 28
6522 8151 8153 28
6523 8151 8154 28
6524 8151 8155 28
6525 8156 8157 28
6526 8156 8158 28
6527 8156 8159 28
6528 8156 8160 28
6529 8161 8162 28
6530 8161 8163 28
6531 8161 8164 28
6532 8161 8165 28
6533 8166 8167 28
6534 8166 8168 28
6535 8166 8169 28
6536 8166 8170 28
6537 8171 8172 28
6538 8171 8173 28
6539 8171 8174 28
6540 8171 8175 28
6541 8176 8177 28
6542 8176 8178 28
6543 8176 8179 28
6544 8176 8180 28
6545 8181 8182 28
6546 8181 8183 28
6547 8181 8184 28
6548 8181 8185 28
6549 8186 8187 28
6550 8186 8188 28
6551 8186 8189 28
6552 8186 8190 28
6553 8191 8192 28
6554 8191 8193 28
6555 8191 8194 28
6556 8191 8195 28
6557 8196 8197 28
6558 8196 8198 28
6559 8196 8199 28
6560 8196 8200 28
6561 8201 8202 28
6562 8201 8203 28
6563 8201 8204 28
6564 8201 8205 28
6565 8206 8207 28
6566 8206 8208 28
6567 8206 8209 28
6568 8206 8210 28
6569 8211 8212 28
6570 8211 8213 28
6571 8211 8214 28
6572 8211 8215 28
6573 8216 8217 28
6574 8216 8218 28
6575 8216 8219 28
6576 8216 8220 28
6577 8221 8222 28
6578 8221 8223 28
6579 8221 8224 28
6580 8221 8225 28
6581 8226 8227 28
6582 8226 8228 28
6583 8226 8229 28
6584 8226 8230 28
6585 8231 8232 28
6586 8231 8233 28
6587 8231 8234 28
6588 8231 8235 28
6589 8236 8237 28
6590 8236 8238 28
6591 8236 8239 28
6592 8236 8240 28
6593 8241 8242 28
6594 8241 8243 28
6595 8241 8244 28
6596 8241 8245 28
6597 8246 8247 28
6598 8246 8248 28
6599 8246 8249 28
6600 8246 8250 28
6601 8251 8252 28
6602 8251 8253 28
6603 8251 8254 28
6604 8251 8255 28
6605 8256 8257 28
6606 8256 8258 28
6607 8256 8259 28
6608 8256 8260 28
6609 8261 8262 28
6610 8261 8263 28
6611 8261 8264 28
6612 8261 8265 28
6613 8266 8267 28
6614 8266 8268 28
6615 8266 8269 28
6616 8266 8270 28
6617 8271 8272 28
6618 8271 8273 28
6619 8271 8274 28
6620 8271 8275 28
6621 8276 8277 28
6622 8276 8278 28
6623 8276 8279 28
6624 8276 8280 28
6625 8281 8282 28
6626 8281 8283 28
6627 8281 8284 28
6628 8281 8285 28
6629 8286 8287 28
6630 8286 8288 28
6631 8286 8289 28
6632 8286 8290 28
6633 8291 8292 28
6634 8291 8293 28
6635 8291 8294 28
6636 8291 8295 28
6637 8296 8297 28
6638 8296 8298 28
6639 8296 8299 28
6640 8296 8300 28
6641 8301 8302 28
6642 8301 8303 28
6643 8301 8304 28
6644 8301 8305 28
6645 8306 8307 28
6646 8306 8308 28
6647 8306 8309 28
6648 8306 8310 28
6649 8311 8312 28
6650 8311 8313 28
6651 8311 8314 28
6652 8311 8315 28
6653 8316 8317 28
6654 8316 8318 28
6655 8316 8319 28
6656 8316 8320 28
6657 8321 8322 28
6658 8321 8323 28
6659 8321 8324 28
6660 8321 8325 28
6661 8326 8327 28
6662 8326 8328 28
6663 8326 8329 28
6664 8326 8330 28
6665 8331 8332 28
6666 8331 8333 28
6667 8331 8334 28
6668 8331 8335 28
6669 8336 8337 28
6670 8336 8338 28
6671 8336 8339 28
6672 8336 8340 28
6673 8341 8342 28
6674 8341 8343 28
6675 8341 8344 28
6676 8341 8345 28
6677 8346 8347 28
6678 8346 8348 28
6679 8346 8349 28
6680 8346 8350 28
6681 8351 8352 28
6682 8351 8353 28
6683 8351 8354 28
6684 8351 8355 28
6685 8356 8357 28
6686 8356 8358 28
6687 8356 8359 28
6688 8356 8360 28
6689 8361 8362 28
6690 8361 8363 28
6691 8361 8364 28
6692 8361 8365 28
6693 8366 8367 28
6694 8366 8368 28
6695 8366 8369 28
6696 8366 8370 28
6697 8371 8372 28
6698 8371 8373 28
6699 8371 8374 28
6700 8371 8375 28
6701 8376 8377 28
6702 8376 8378 28
6703 8376 8379 28
6704 8376 8380 28
6705 8381 8382 28
6706 8381 8383 28
6707 8381 8384 28
6708 8381 8385 28
6709 8386 8387 28
6710 8386 8388 28
6711 8386 8389 28
6712 8386 8390 28
6713 8391 8392 28
6714 8391 8393 28
6715 8391 8394 28
6716 8391 8395 28
6717 8396 8397 28
6718 8396 8398 28
6719 8396 8399 28
6720 8396 8400 28
6721 8401 8402 28
6722 8401 8403 28
6723 8401 8404 28
6724 8401 8405 28
6725 8406 8407 28
6726 8406 8408 28
6727 8406 8409 28
6728 8406 8410 28
6729 8411 8412 28
6730 8411 8413 28
6731 8411 8414 28
6732 8411 8415 28
6733 8416 8417 28
6734 8416 8418 28
6735 8416 8419 28
6736 8416 8420 28
6737 8421 8422 28
6738 8421 8423 28
6739 8421 8424 28
6740 8421 8425 28
6741 8426 8427 28
6742 8426 8428 28
6743 8426 8429 28
6744 8426 8430 28
6745 8431 8432 28
6746 8431 8433 28
6747 8431 8434 28
6748 8431 8435 28
6749 8436 8437 28
6750 8436 8438 28
6751 8436 8439 28
6752 8436 8440 28
6753 8441 8442 28
6754 8441 8443 28
6755 8441 8444 28
6756 8441 8445 28
6757 8446 8447 28
6758 8446 8448 28
6759 8446 8449 28
6760 8446 8450 28
6761 8451 8452 28
6762 8451 8453 28
6763 8451 8454 28
6764 8451 8455 28
6765 8456 8457 28
6766 8456 8458 28
6767 8456 8459 28
6768 8456 8460 28
6769 8461 8462 28
6770 8461 8463 28
6771 8461 8464 28
6772 8461 8465 28
6773 8466 8467 28
6774 8466 8468 28
6775 8466 8469 28
6776 8466 8470 28
6777 8471 8472 28
6778 8471 8473 28
6779 8471 8474 28
6780 8471 8475 28
6781 8476 8477 28
6782 8476 8478 28
6783 8476 8479 28
6784 8476 8480 28
6785 8481 8482 28
6786 8481 8483 28
6787 8481 8484 28
6788 8481 8485 28
6789 8486 8487 28
6790 8486 8488 28
6791 8486 8489 28
6792 8486 8490 28
6793 8491 8492 28
6794 8491 8493 28
6795 8491 8494 28
6796 8491 8495 28
6797 8496 8497 28
6798 8496 8498 28
6799 8496 8499 28
6800 8496 8500 28
6801 8501 8502 28
6802 8501 8503 28
6803 8501 8504 28
6804 8501 8505 28
6805 8506 8507 28
6806 8506 8508 28
6807 8506 8509 28
6808 8506 8510 28
6809 8511 8512 28
6810 8511 8513 28
6811 8511 8514 28
6812 8511 8515 28
6813 8516 8517 28
6814 8516 8518 28
6815 8516 8519 28
6816 8516 8520 28
6817 8521 8522 28
6818 8521 8523 28
6819 8521 8524 28
6820 8521 8525 28
6821 8526 8527 28
6822 8526 8528 28
6823 8526 8529 28
6824 8526 8530 28
6825 8531 8532 28
6826 8531 8533 28
6827 8531 8534 28
6828 8531 8535 28
6829 8536 8537 28
6830 8536 8538 28
6831 8536 8539 28
6832 8536 8540 28
6833 8541 8542 28
6834 8541 8543 28
6835 8541 8544 28
6836 8541 8545 28
6837 8546 8547 28
6838 8546 8548 28
6839 8546 8549 28
6840 8546 8550 28
6841 8551 8552 28
6842 8551 8553 28
6843 8551 8554 28
6844 8551 8555 28
6845 8556 8557 28
6846 8556 8558 28
6847 8556 8559 28
6848 8556 8560 28
6849 8561 8562 28
6850 8561 8563 28
6851 8561 8564 28
6852 8561 8565 28
6853 8566 8567 28
6854 8566 8568 28
6855 8566 8569 28
6856 8566 8570 28
6857 8571 8572 28
6858 8571 8573 28
6859 8571 8574 28
6860 8571 8575 28
6861 8576 8577 28
6862 8576 8578 28
6863 8576 8579 28
6864 8576 8580 28
6865 8581 8582 28
6866 8581 8583 28
6867 8581 8584 28
6868 8581 8585 28
6869 8586 8587 28
6870 8586 8588 28
6871 8586 8589 28
6872 8586 8590 28
6873 8591 8592 28
6874 8591 8593 28
6875 8591 8594 28
6876 8591 8595 28
6877 8596 8597 28
6878 8596 8598 28
6879 8596 8599 28
6880 8596 8600 28
6881 8601 8602 28
6882 8601 8603 28
6883 8601 8604 28
6884 8601 8605 28
6885 8606 8607 28
6886 8606 8608 28
6887 8606 8609 28
6888 8606 8610 28
6889 8611 8612 28
6890 8611 8613 28
6891 8611 8614 28
6892 8611 8615 28
6893 8616 8617 28
6894 8616 8618 28
6895 8616 8619 28
6896 8616 8620 28
6897 8621 8622 28
6898 8621 8623 28
6899 8621 8624 28
6900 8621 8625 28
6901 8626 8627 28
6902 8626 8628 28
6903 8626 8629 28
6904 8626 8630 28
6905 8631 8632 28
6906 8631 8633 28
6907 8631 8634 28
6908 8631 8635 28
6909 8636 8637 28
6910 8636 8638 28
6911 8636 8639 28
6912 8636 8640 28
6913 8641 8642 28
6914 8641 8643 28
6915 8641 8644 28
6916 8641 8645 28
6917 8646 8647 28
6918 8646 8648 28
6919 8646 8649 28
6920 8646 8650 28
6921 8651 8652 28
6922 8651 8653 28
6923 8651 8654 28
6924 8651 8655 28
6925 8656 8657 28
6926 8656 8658 28
6927 8656 8659 28
6928 8656 8660 28
6929 8661 8662 28
6930 8661 8663 28
6931 8661 8664 28
6932 8661 8665 28
6933 8666 8667 28
6934 8666 8668 28
6935 8666 8669 28
6936 8666 8670 28
6937 8671 8672 28
6938 8671 8673 28
6939 8671 8674 28
6940 8671 8675 28
6941 8676 8677 28
6942 8676 8678 28
6943 8676 8679 28
6944 8676 8680 28
6945 8681 8682 28
6946 8681 8683 28
6947 8681 8684 28
6948 8681 8685 28
6949 8686 8687 28
6950 8686 8688 28
6951 8686 8689 28
6952 8686 8690 28
6953 8691 8692 28
6954 8691 8693 28
6955 8691 8694 28
6956 8691 8695 28
6957 8696 8697 28
6958 8696 8698 28
6959 8696 8699 28
6960 8696 8700 28
6961 8701 8702 28
6962 8701 8703 28
6963 8701 8704 28
6964 8701 8705 28
6965 8706 8707 28
6966 8706 8708 28
6967 8706 8709 28
6968 8706 8710 28
6969 8711 8712 28
6970 8711 8713 28
6971 8711 8714 28
6972 8711 8715 28
6973 8716 8717 28
6974 8716 8718 28
6975 8716 8719 28
6976 8716 8720 28
6977 8721 8722 28
6978 8721 8723 28
6979 8721 8724 28
6980 8721 8725 28
6981 8726 8727 28
6982 8726 8728 28
6983 8726 8729 28
6984 8726 8730 28
6985 8731 8732 28
6986 8731 8733 28
6987 8731 8734 28
6988 8731 8735 28
6989 8736 8737 28
6990 8736 8738 28
6991 8736 8739 28
6992 8736 8740 28
6993 8741 8742 28
6994 8741 8743 28
6995 8741 8744 28
6996 8741 8745 28
6997 8746 8747 28
6998 8746 8748 28
6999 8746 8749 28
7000 8746 8750 28
7001 8751 8752 28
7002 8751 8753 28
7003 8751 8754 28
7004 8751 8755 28
7005 8756 8757 28
7006 8756 8758 28
7007 8756 8759 28
7008 8756 8760 28
7009 8761 8762 28
7010 8761 8763 28
7011 8761 8764 28
7012 8761 8765 28
7013 8766 8767 28
7014 8766 8768 28
7015 8766 8769 28
7016 8766 8770 28
7017 8771 8772 28
7018 8771 8773 28
7019 8771 8774 28
7020 8771 8775 28
7021 8776 8777 28
7022 8776 8778 28
7023 8776 8779 28
7024 8776 8780 28
7025 8781 8782 28
7026 8781 8783 28
7027 8781 8784 28
7028 8781 8785 28
7029 8786 8787 28
7030 8786 8788 28
7031 8786 8789 28
7032 8786 8790 28
7033 8791 8792 28
7034 8791 8793 28
7035 8791 8794 28
7036 8791 8795 28
7037 8796 8797 28
7038 8796 8798 28
7039 8796 8799 28
7040 8796 8800 28
7041 8801 8802 28
7042 8801 8803 28
7043 8801 8804 28
7044 8801 8805 28
7045 8806 8807 28
7046 8806 8808 28
7047 8806 8809 28
7048 8806 8810 28
7049 8811 8812 28
7050 8811 8813 28
7051 8811 8814 28
7052 8811 8815 28
7053 8816 8817 28
7054 8816 8818 28
7055 8816 8819 28
7056 8816 8820 28
7057 8821 8822 28
7058 8821 8823 28
7059 8821 8824 28
7060 8821 8825 28
7061 8826 8827 28
7062 8826 8828 28
7063 8826 8829 28
7064 8826 8830 28
7065 8831 8832 28
7066 8831 8833 28
7067 8831 8834 28
7068 8831 8835 28
7069 8836 8837 28
7070 8836 8838 28
7071 8836 8839 28
7072 8836 8840 28
7073 8841 8842 28
7074 8841 8843 28
7075 8841 8844 28
7076 8841 8845 28
7077 8846 8847 28
7078 8846 8848 28
7079 8846 8849 28
7080 8846 8850 28
7081 8851 8852 28
7082 8851 8853 28
7083 8851 8854 28
7084 8851 8855 28
7085 8856 8857 28
7086 8856 8858 28
7087 8856 8859 28
7088 8856 8860 28
7089 8861 8862 28
7090 8861 8863 28
7091 8861 8864 28
7092 8861 8865 28
7093 8866 8867 28
7094 8866 8868 28
7095 8866 8869 28
7096 8866 8870 28
7097 8871 8872 28
7098 8871 8873 28
7099 8871 8874 28
7100 8871 8875 28
7101 8876 8877 28
7102 8876 8878 28
7103 8876 8879 28
7104 8876 8880 28
7105 8881 8882 28
7106 8881 8883 28
7107 8881 8884 28
7108 8881 8885 28
7109 8886 8887 28
7110 8886 8888 28
7111 8886 8889 28
7112 8886 8890 28
7113 8891 8892 28
7114 8891 8893 28
7115 8891 8894 28
7116 8891 8895 28
7117 8896 8897 28
7118 8896 8898 28
7119 8896 8899 28
7120 8896 8900 28
7121 8901 8902 28
7122 8901 8903 28
7123 8901 8904 28
7124 8901 8905 28
7125 8906 8907 28
7126 8906 8908 28
7127 8906 8909 28
7128 8906 8910 28
7129 8911 8912 28
7130 8911 8913 28
7131 8911 8914 28
7132 8911 8915 28
7133 8916 8917 28
7134 8916 8918 28
7135 8916 8919 28
7136 8916 8920 28
7137 8921 8922 28
7138 8921 8923 28
7139 8921 8924 28
7140 8921 8925 28
7141 8926 8927 28
7142 8926 8928 28
7143 8926 8929 28
7144 8926 8930 28
7145 8931 8932 28
7146 8931 8933 28
7147 8931 8934 28
7148 8931 8935 28
7149 8936 8937 28
7150 8936 8938 28
7151 8936 8939 28
7152 8936 8940 28
7153 8941 8942 28
7154 8941 8943 28
7155 8941 8944 28
7156 8941 8945 28
7157 8946 8947 28
7158 8946 8948 28
7159 8946 8949 28
7160 8946 8950 28
7161 8951 8952 28
7162 8951 8953 28
7163 8951 8954 28
7164 8951 8955 28
7165 8956 8957 28
7166 8956 8958 28
7167 8956 8959 28
7168 8956 8960 28
7169 8961 8962 28
7170 8961 8963 28
7171 8961 8964 28
7172 8961 8965 28
7173 8966 8967 28
7174 8966 8968 28
7175 8966 8969 28
7176 8966 8970 28
7177 8971 8972 28
7178 8971 8973 28
7179 8971 8974 28
7180 8971 8975 28
7181 8976 8977 28
7182 8976 8978 28
7183 8976 8979 28
7184 8976 8980 28
7185 8981 8982 28
7186 8981 8983 28
7187 8981 8984 28
7188 8981 8985 28
7189 8986 8987 28
7190 8986 8988 28
7191 8986 8989 28
7192 8986 8990 28
7193 8991 8992 28
7194 8991 8993 28
7195 8991 8994 28
7196 8991 8995 28
7197 8996 8997 28
7198 8996 8998 28
7199 8996 8999 28
7200 8996 9000 28
7201 9001 9002 28
7202 9001 9003 28
7203 9001 9004 28
7204 9001 9005 28
7205 9006 9007 28
7206 9006 9008 28
7207 9006 9009 28
7208 9006 9010 28
7209 9011 9012 28
7210 9011 9013 28
7211 9011 9014 28
7212 9011 9015 28
7213 9016 9017 28
7214 9016 9018 28
7215 9016 9019 28
7216 9016 9020 28
7217 9021 9022 28
7218 9021 9023 28
7219 9021 9024 28
7220 9021 9025 28
7221 9026 9027 28
7222 9026 9028 28
7223 9026 9029 28
7224 9026 9030 28
7225 9031 9032 28
7226 9031 9033 28
7227 9031 9034 28
7228 9031 9035 28
7229 9036 9037 28
7230 9036 9038 28
7231 9036 9039 28
7232 9036 9040 28
7233 9041 9042 28
7234 9041 9043 28
7235 9041 9044 28
7236 9041 9045 28
7237 9046 9047 28
7238 9046 9048 28
7239 9046 9049 28
7240 9046 9050 28
7241 9051 9052 28
7242 9051 9053 28
7243 9051 9054 28
7244 9051 9055 28
7245 9056 9057 28
7246 9056 9058 28
7247 9056 9059 28
7248 9056 9060 28
7249 9061 9062 28
7250 9061 9063 28
7251 9061 9064 28
7252 9061 9065 28
7253 9066 9067 28
7254 9066 9068 28
7255 9066 9069 28
7256 9066 9070 28
7257 9071 9072 28
7258 9071 9073 28
7259 9071 9074 28
7260 9071 9075 28
7261 9076 9077 28
7262 9076 9078 28
7263 9076 9079 28
7264 9076 9080 28
7265 9081 9082 28
7266 9081 9083 28
7267 9081 9084 28
7268 9081 9085 28
7269 9086 9087 28
7270 9086 9088 28
7271 9086 9089 28
7272 9086 9090 28
7273 9091 9092 28
7274 9091 9093 28
7275 9091 9094 28
7276 9091 9095 28
7277 9096 9097 28
7278 9096 9098 28
7279 9096 9099 28
7280 9096 9100 28
7281 9101 9102 28
7282 9101 9103 28
7283 9101 9104 28
7284 9101 9105 28
7285 9106 9107 28
7286 9106 9108 28
7287 9106 9109 28
7288 9106 9110 28
7289 9111 9112 28
7290 9111 9113 28
7291 9111 9114 28
7292 9111 9115 28
7293 9116 9117 28
7294 9116 9118 28
7295 9116 9119 28
7296 9116 9120 28
7297 9121 9122 28
7298 9121 9123 28
7299 9121 9124 28
7300 9121 9125 28
7301 9126 9127 28
7302 9126 9128 28
7303 9126 9129 28
7304 9126 9130 28
7305 9131 9132 28
7306 9131 9133 28
7307 9131 9134 28
7308 9131 9135 28
7309 9136 9137 28
7310 9136 9138 28
7311 9136 9139 28
7312 9136 9140 28
7313 9141 9142 28
7314 9141 9143 28
7315 9141 9144 28
7316 9141 9145 28
7317 9146 9147 28
7318 9146 9148 28
7319 9146 9149 28
7320 9146 9150 28
7321 9151 9152 28
7322 9151 9153 28
7323 9151 9154 28
7324 9151 9155 28
7325 9156 9157 28
7326 9156 9158 28
7327 9156 9159 28
7328 9156 9160 28
7329 9161 9162 28
7330 9161 9163 28
7331 9161 9164 28
7332 9161 9165 28
7333 9166 9167 28
7334 9166 9168 28
7335 9166 9169 28
7336 9166 9170 28
7337 9171 9172 28
7338 9171 9173 28
7339 9171 9174 28
7340 9171 9175 28
7341 9176 9177 28
7342 9176 9178 28
7343 9176 9179 28
7344 9176 9180 28
7345 9181 9182 28
7346 9181 9183 28
7347 9181 9184 28
7348 9181 9185 28
7349 9186 9187 28
7350 9186 9188 28
7351 9186 9189 28
7352 9186 9190 28
7353 9191 9192 28
7354 9191 9193 28
7355 9191 9194 28
7356 9191 9195 28
7357 9196 9197 28
7358 9196 9198 28
7359 9196 9199 28
7360 9196 9200 28
7361 9201 9202 28
7362 9201 9203 28
7363 9201 9204 28
7364 9201 9205 28
7365 9206 9207 28
7366 9206 9208 28
7367 9206 9209 28
7368 9206 9210 28
7369 9211 9212 28
7370 9211 9213 28
7371 9211 9214 28
7372 9211 9215 28
7373 9216 9217 28
7374 9216 9218 28
7375 9216 9219 28
7376 9216 9220 28
7377 9221 9222 28
7378 9221 9223 28
7379 9221 9224 28
7380 9221 9225 28
7381 9226 9227 28
7382 9226 9228 28
7383 9226 9229 28
7384 9226 9230 28
7385 9231 9232 28
7386 9231 9233 28
7387 9231 9234 28
7388 9231 9235 28
7389 9236 9237 28
7390 9236 9238 28
7391 9236 9239 28
7392 9236 9240 28
7393 9241 9242 28
7394 9241 9243 28
7395 9241 9244 28
7396 9241 9245 28
7397 9246 9247 28
7398 9246 9248 28
7399 9246 9249 28
7400 9246 9250 28
7401 9251 9252 28
7402 9251 9253 28
7403 9251 9254 28
7404 9251 9255 28
7405 9256 9257 28
7406 9256 9258 28
7407 9256 9259 28
7408 9256 9260 28
7409 9261 9262 28
7410 9261 9263 28
7411 9261 9264 28
7412 9261 9265 28
7413 9266 9267 28
7414 9266 9268 28
7415 9266 9269 28
7416 9266 9270 28
7417 9271 9272 28
7418 9271 9273 28
7419 9271 9274 28
7420 9271 9275 28
7421 9276 9277 28
7422 9276 9278 28
7423 9276 9279 28
7424 9276 9280 28
7425 9281 9282 28
7426 9281 9283 28
7427 9281 9284 28
7428 9281 9285 28
7429 9286 9287 28
7430 9286 9288 28
7431 9286 9289 28
7432 9286 9290 28
7433 9291 9292 28
7434 9291 9293 28
7435 9291 9294 28
7436 9291 9295 28
7437 9296 9297 28
7438 9296 9298 28
7439 9296 9299 28
7440 9296 9300 28
7441 9301 9302 28
7442 9301 9303 28
7443 9301 9304 28
7444 9301 9305 28
7445 9306 9307 28
7446 9306 9308 28
7447 9306 9309 28
7448 9306 9310 28
7449 9311 9312 28
7450 9311 9313 28
7451 9311 9314 28
7452 9311 9315 28
7453 9316 9317 28
7454 9316 9318 28
7455 9316 9319 28
7456 9316 9320 28
7457 9321 9322 28
7458 9321 9323 28
7459 9321 9324 28
7460 9321 9325 28
7461 9326 9327 28
7462 9326 9328 28
7463 9326 9329 28
7464 9326 9330 28
7465 9331 9332 28
7466 9331 9333 28
7467 9331 9334 28
7468 9331 9335 28
7469 9336 9337 28
7470 9336 9338 28
7471 9336 9339 28
7472 9336 9340 28
7473 9341 9342 28
7474 9341 9343 28
7475 9341 9344 28
7476 9341 9345 28
7477 9346 9347 28
7478 9346 9348 28
7479 9346 9349 28
7480 9346 9350 28
7481 9351 9352 28
7482 9351 9353 28
7483 9351 9354 28
7484 9351 9355 28
7485 9356 9357 28
7486 9356 9358 28
7487 9356 9359 28
7488 9356 9360 28
7489 9361 9362 28
7490 9361 9363 28
7491 9361 9364 28
7492 9361 9365 28
7493 9366 9367 28
7494 9366 9368 28
7495 9366 9369 28
7496 9366 9370 28
7497 9371 9372 28
7498 9371 9373 28
7499 9371 9374 28
7500 9371 9375 28
7501 9376 9377 28
7502 9376 9378 28
7503 9376 9379 28
7504 9376 9380 28
7505 9381 9382 28
7506 9381 9383 28
7507 9381 9384 28
7508 9381 9385 28
7509 9386 9387 28
7510 9386 9388 28
7511 9386 9389 28
7512 9386 9390 28
7513 9391 9392 28
7514 9391 9393 28
7515 9391 9394 28
7516 9391 9395 28
7517 9396 9397 28
7518 9396 9398 28
7519 9396 9399 28
7520 9396 9400 28
7521 9401 9402 28
7522 9401 9403 28
7523 9401 9404 28
7524 9401 9405 28
7525 9406 9407 28
7526 9406 9408 28
7527 9406 9409 28
7528 9406 9410 28
7529 9411 9412 28
7530 9411 9413 28
7531 9411 9414 28
7532 9411 9415 28
7533 9416 9417 28
7534 9416 9418 28
7535 9416 9419 28
7536 9416 9420 28
7537 9421 9422 28
7538 9421 9423 28
7539 9421 9424 28
7540 9421 9425 28
7541 9426 9427 28
7542 9426 9428 28
7543 9426 9429 28
7544 9426 9430 28
7545 9431 9432 28
7546 9431 9433 28
7547 9431 9434 28
7548 9431 9435 28
7549 9436 9437 28
7550 9436 9438 28
7551 9436 9439 28
7552 9436 9440 28
7553 9441 9442 28
7554 9441 9443 28
7555 9441 9444 28
7556 9441 9445 28
7557 9446 9447 28
7558 9446 9448 28
7559 9446 9449 28
7560 9446 9450 28
7561 9451 9452 28
7562 9451 9453 28
7563 9451 9454 28
7564 9451 9455 28
7565 9456 9457 28
7566 9456 9458 28
7567 9456 9459 28
7568 9456 9460 28
7569 9461 9462 28
7570 9461 9463 28
7571 9461 9464 28
7572 9461 9465 28
7573 9466 9467 28
7574 9466 9468 28
7575 9466 9469 28
7576 9466 9470 28
7577 9471 9472 28
7578 9471 9473 28
7579 9471 9474 28
7580 9471 9475 28
7581 9476 9477 28
7582 9476 9478 28
7583 9476 9479 28
7584 9476 9480 28
7585 9481 9482 28
7586 9481 9483 28
7587 9481 9484 28
7588 9481 9485 28
7589 9486 9487 28
7590 9486 9488 28
7591 9486 9489 28
7592 9486 9490 28
7593 9491 9492 28
7594 9491 9493 28
7595 9491 9494 28
7596 9491 9495 28
7597 9496 9497 28
7598 9496 9498 28
7599 9496 9499 28
7600 9496 9500 28
7601 9501 9502 28
7602 9501 9503 28
7603 9501 9504 28
7604 9501 9505 28
7605 9506 9507 28
7606 9506 9508 28
7607 9506 9509 28
7608 9506 9510 28
7609 9511 9512 28
7610 9511 9513 28
7611 9511 9514 28
7612 9511 9515 28
7613 9516 9517 28
7614 9516 9518 28
7615 9516 9519 28
7616 9516 9520 28
7617 9521 9522 28
7618 9521 9523 28
7619 9521 9524 28
7620 9521 9525 28
7621 9526 9527 28
7622 9526 9528 28
7623 9526 9529 28
7624 9526 9530 28
7625 9531 9532 28
7626 9531 9533 28
7627 9531 9534 28
7628 9531 9535 28
7629 9536 9537 28
7630 9536 9538 28
7631 9536 9539 28
7632 9536 9540 28
7633 9541 9542 28
7634 9541 9543 28
7635 9541 9544 28
7636 9541 9545 28
7637 9546 9547 28
7638 9546 9548 28
7639 9546 9549 28
7640 9546 9550 28
7641 9551 9552 28
7642 9551 9553 28
7643 9551 9554 28
7644 9551 9555 28
7645 9556 9557 28
7646 9556 9558 28
7647 9556 9559 28
7648 9556 9560 28
7649 9561 9562 28
7650 9561 9563 28
7651 9561 9564 28
7652 9561 9565 28
7653 9566 9567 28
7654 9566 9568 28
7655 9566 9569 28
7656 9566 9570 28
7657 9571 9572 28
7658 9571 9573 28
7659 9571 9574 28
7660 9571 9575 28
7661 9576 9577 28
7662 9576 9578 28
7663 9576 9579 28
7664 9576 9580 28
7665 9581 9582 28
7666 9581 9583 28
7667 9581 9584 28
7668 9581 9585 28
7669 9586 9587 28
7670 9586 9588 28
7671 9586 9589 28
7672 9586 9590 28
7673 9591 9592 28
7674 9591 9593 28
7675 9591 9594 28
7676 9591 9595 28
7677 9596 9597 28
7678 9596 9598 28
7679 9596 9599 28
7680 9596 9600 28
7681 9601 9602 28
7682 9601 9603 28
7683 9601 9604 28
7684 9601 9605 28
7685 9606 9607 28
7686 9606 9608 28
7687 9606 9609 28
7688 9606 9610 28
7689 9611 9612 28
7690 9611 9613 28
7691 9611 9614 28
7692 9611 9615 28
7693 9616 9617 28
7694 9616 9618 28
7695 9616 9619 28
7696 9616 9620 28
7697 9621 9622 28
7698 9621 9623 28
7699 9621 9624 28
7700 9621 9625 28
7701 9626 9627 28
7702 9626 9628 28
7703 9626 9629 28
7704 9626 9630 28
7705 9631 9632 28
7706 9631 9633 28
7707 9631 9634 28
7708 9631 9635 28
7709 9636 9637 28
7710 9636 9638 28
7711 9636 9639 28
7712 9636 9640 28
7713 9641 9642 28
7714 9641 9643 28
7715 9641 9644 28
7716 9641 9645 28
7717 9646 9647 28
7718 9646 9648 28
7719 9646 9649 28
7720 9646 9650 28
7721 9651 9652 28
7722 9651 9653 28
7723 9651 9654 28
7724 9651 9655 28
7725 9656 9657 28
7726 9656 9658 28
7727 9656 9659 28
7728 9656 9660 28
7729 9661 9662 28
7730 9661 9663 28
7731 9661 9664 28
7732 9661 9665 28
7733 9666 9667 28
7734 9666 9668 28
7735 9666 9669 28
7736 9666 9670 28
7737 9671 9672 28
7738 9671 9673 28
7739 9671 9674 28
7740 9671 9675 28
7741 9676 9677 28
7742 9676 9678 28
7743 9676 9679 28
7744 9676 9680 28
7745 9681 9682 28
7746 9681 9683 28
7747 9681 9684 28
7748 9681 9685 28
7749 9686 9687 28
7750 9686 9688 28
7751 9686 9689 28
7752 9686 9690 28
7753 9691 9692 28
7754 9691 9693 28
7755 9691 9694 28
7756 9691 9695 28
7757 9696 9697 28
7758 9696 9698 28
7759 9696 9699 28
7760 9696 9700 28
7761 9701 9702 28
7762 9701 9703 28
7763 9701 9704 28
7764 9701 9705 28
7765 9706 9707 28
7766 9706 9708 28
7767 9706 9709 28
7768 9706 9710 28
7769 9711 9712 28
7770 9711 9713 28
7771 9711 9714 28
7772 9711 9715 28
7773 9716 9717 28
7774 9716 9718 28
7775 9716 9719 28
7776 9716 9720 28
7777 9721 9722 28
7778 9721 9723 28
7779 9721 9724 28
7780 9721 9725 28
7781 9726 9727 28
7782 9726 9728 28
7783 9726 9729 28
7784 9726 9730 28
7785 9731 9732 28
7786 9731 9733 28
7787 9731 9734 28
7788 9731 9735 28
7789 9736 9737 28
7790 9736 9738 28
7791 9736 9739 28
7792 9736 9740 28
7793 9741 9742 28
7794 9741 9743 28
7795 9741 9744 28
7796 9741 9745 28
7797 9746 9747 28
7798 9746 9748 28
7799 9746 9749 28
7800 9746 9750 28
7801 9751 9752 28
7802 9751 9753 28
7803 9751 9754 28
7804 9751 9755 28
7805 9756 9757 28
7806 9756 9758 28
7807 9756 9759 28
7808 9756 9760 28
7809 9761 9762 28
7810 9761 9763 28
7811 9761 9764 28
7812 9761 9765 28
7813 9766 9767 28
7814 9766 9768 28
7815 9766 9769 28
7816 9766 9770 28
7817 9771 9772 28
7818 9771 9773 28
7819 9771 9774 28
7820 9771 9775 28
7821 9776 9777 28
7822 9776 9778 28
7823 9776 9779 28
7824 9776 9780 28
7825 9781 9782 28
7826 9781 9783 28
7827 9781 9784 28
7828 9781 9785 28
7829 9786 9787 28
7830 9786 9788 28
7831 9786 9789 28
7832 9786 9790 28
7833 9791 9792 28
7834 9791 9793 28
7835 9791 9794 28
7836 9791 9795 28
7837 9796 9797 28
7838 9796 9798 28
7839 9796 9799 28
7840 9796 9800 28
7841 9801 9802 28
7842 9801 9803 28
7843 9801 9804 28
7844 9801 9805 28
7845 9806 9807 28
7846 9806 9808 28
7847 9806 9809 28
7848 9806 9810 28
7849 9811 9812 28
7850 9811 9813 28
7851 9811 9814 28
7852 9811 9815 28
7853 9816 9817 28
7854 9816 9818 28
7855 9816 9819 28
7856 9816 9820 28
7857 9821 9822 28
7858 9821 9823 28
7859 9821 9824 28
7860 9821 9825 28
7861 9826 9827 28
7862 9826 9828 28
7863 9826 9829 28
7864 9826 9830 28
7865 9831 9832 28
7866 9831 9833 28
7867 9831 9834 28
7868 9831 9835 28
7869 9836 9837 28
7870 9836 9838 28
7871 9836 9839 28
7872 9836 9840 28
7873 9841 9842 28
7874 9841 9843 28
7875 9841 9844 28
7876 9841 9845 28
7877 9846 9847 28
7878 9846 9848 28
7879 9846 9849 28
7880 9846 9850 28
7881 9851 9852 28
7882 9851 9853 28
7883 9851 9854 28
7884 9851 9855 28
7885 9856 9857 28
7886 9856 9858 28
7887 9856 9859 28
7888 9856 9860 28
7889 9861 9862 28
7890 9861 9863 28
7891 9861 9864 28
7892 9861 9865 28
7893 9866 9867 28
7894 9866 9868 28
7895 9866 9869 28
7896 9866 9870 28
7897 9871 9872 28
7898 9871 9873 28
7899 9871 9874 28
7900 9871 9875 28
7901 9876 9877 28
7902 9876 9878 28
7903 9876 9879 28
7904 9876 9880 28
7905 9881 9882 28
7906 9881 9883 28
7907 9881 9884 28
7908 9881 9885 28
7909 9886 9887 28
7910 9886 9888 28
7911 9886 9889 28
7912 9886 9890 28
7913 9891 9892 28
7914 9891 9893 28
7915 9891 9894 28
7916 9891 9895 28
7917 9896 9897 28
7918 9896 9898 28
7919 9896 9899 28
7920 9896 9900 28
7921 9901 9902 28
7922 9901 9903 28
7923 9901 9904 28
7924 9901 9905 28
7925 9906 9907 28
7926 9906 9908 28
7927 9906 9909 28
7928 9906 9910 28
7929 9911 9912 28
7930 9911 9913 28
7931 9911 9914 28
7932 9911 9915 28
7933 9916 9917 28
7934 9916 9918 28
7935 9916 9919 28
7936 9916 9920 28
7937 9921 9922 28
7938 9921 9923 28
7939 9921 9924 28
7940 9921 9925 28
7941 9926 9927 28
7942 9926 9928 28
7943 9926 9929 28
7944 9926 9930 28
7945 9931 9932 28
7946 9931 9933 28
7947 9931 9934 28
7948 9931 9935 28
7949 9936 9937 28
7950 9936 9938 28
7951 9936 9939 28
7952 9936 9940 28
7953 9941 9942 28
7954 9941 9943 28
7955 9941 9944 28
7956 9941 9945 28
7957 9946 9947 28
7958 9946 9948 28
7959 9946 9949 28
7960 9946 9950 28
7961 9951 9952 28
7962 9951 9953 28
7963 9951 9954 28
7964 9951 9955 28
7965 9956 9957 28
7966 9956 9958 28
7967 9956 9959 28
7968 9956 9960 28
7969 9961 9962 28
7970 9961 9963 28
7971 9961 9964 28
7972 9961 9965 28
7973 9966 9967 28
7974 9966 9968 28
7975 9966 9969 28
7976 9966 9970 28
7977 9971 9972 28
7978 9971 9973 28
7979 9971 9974 28
7980 9971 9975 28
7981 9976 9977 28
7982 9976 9978 28
7983 9976 9979 28
7984 9976 9980 28
7985 9981 9982 28
7986 9981 9983 28
7987 9981 9984 28
7988 9981 9985 28
7989 9986 9987 28
7990 9986 9988 28
7991 9986 9989 28
7992 9986 9990 28
7993 9991 9992 28
7994 9991 9993 28
7995 9991 9994 28
7996 9991 9995 28
7997 9996 9997 28
7998 9996 9998 28
7999 9996 9999 28
8000 9996 10000 28
8001 10001 10002 28
8002 10001 10003 28
8003 10001 10004 28
8004 10001 10005 28
8005 10006 10007 28
8006 10006 10008 28
8007 10006 10009 28
8008 10006 10010 28
8009 10011 10012 28
8010 10011 10013 28
8011 10011 10014 28
8012 10011 10015 28
8013 10016 10017 28
8014 10016 10018 28
8015 10016 10019 28
8016 10016 10020 28
8017 10021 10022 28
8018 10021 10023 28
8019 10021 10024 28
8020 10021 10025 28
8021 10026 10027 28
8022 10026 10028 28
8023 10026 10029 28
8024 10026 10030 28
8025 10031 10032 28
8026 10031 10033 28
8027 10031 10034 28
8028 10031 10035 28
8029 10036 10037 28
8030 10036 10038 28
8031 10036 10039 28
8032 10036 10040 28
8033 10041 10042 28
8034 10041 10043 28
8035 10041 10044 28
8036 10041 10045 28
8037 10046 10047 28
8038 10046 10048 28
8039 10046 10049 28
8040 10046 10050 28
8041 10051 10052 28
8042 10051 10053 28
8043 10051 10054 28
8044 10051 10055 28
8045 10056 10057 28
8046 10056 10058 28
8047 10056 10059 28
8048 10056 10060 28
8049 10061 10062 28
8050 10061 10063 28
8051 10061 10064 28
8052 10061 10065 28
8053 10066 10067 28
8054 10066 10068 28
8055 10066 10069 28
8056 10066 10070 28
8057 10071 10072 28
8058 10071 10073 28
8059 10071 10074 28
8060 10071 10075 28
8061 10076 10077 28
8062 10076 10078 28
8063 10076 10079 28
8064 10076 10080 28
8065 10081 10082 28
8066 10081 10083 28
8067 10081 10084 28
8068 10081 10085 28
8069 10086 10087 28
8070 10086 10088 28
8071 10086 10089 28
8072 10086 10090 28
8073 10091 10092 28
8074 10091 10093 28
8075 10091 10094 28
8076 10091 10095 28
8077 10096 10097 28
8078 10096 10098 28
8079 10096 10099 28
8080 10096 10100 28
8081 10101 10102 28
8082 10101 10103 28
8083 10101 10104 28
8084 10101 10105 28
8085 10106 10107 28
8086 10106 10108 28
8087 10106 10109 28
8088 10106 10110 28
8089 10111 10112 28
8090 10111 10113 28
8091 10111 10114 28
8092 10111 10115 28
8093 10116 10117 28
8094 10116 10118 28
8095 10116 10119 28
8096 10116 10120 28
8097 10121 10122 28
8098 10121 10123 28
8099 10121 10124 28
8100 10121 10125 28
8101 10126 10127 28
8102 10126 10128 28
8103 10126 10129 28
8104 10126 10130 28
8105 10131 10132 28
8106 10131 10133 28
8107 10131 10134 28
8108 10131 10135 28
8109 10136 10137 28
8110 10136 10138 28
8111 10136 10139 28
8112 10136 10140 28
8113 10141 10142 28
8114 10141 10143 28
8115 10141 10144 28
8116 10141 10145 28
8117 10146 10147 28
8118 10146 10148 28
8119 10146 10149 28
8120 10146 10150 28
8121 10151 10152 28
8122 10151 10153 28
8123 10151 10154 28
8124 10151 10155 28
8125 10156 10157 28
8126 10156 10158 28
8127 10156 10159 28
8128 10156 10160 28
8129 10161 10162 28
8130 10161 10163 28
8131 10161 10164 28
8132 10161 10165 28
8133 10166 10167 28
8134 10166 10168 28
8135 10166 10169 28
8136 10166 10170 28
8137 10171 10172 28
8138 10171 10173 28
8139 10171 10174 28
8140 10171 10175 28
8141 10176 10177 28
8142 10176 10178 28
8143 10176 10179 28
8144 10176 10180 28
8145 10181 10182 28
8146 10181 10183 28
8147 10181 10184 28
8148 10181 10185 28
8149 10186 10187 28
8150 10186 10188 28
8151 10186 10189 28
8152 10186 10190 28
8153 10191 10192 28
8154 10191 10193 28
8155 10191 10194 28
8156 10191 10195 28
8157 10196 10197 28
8158 10196 10198 28
8159 10196 10199 28
8160 10196 10200 28
8161 10201 10202 28
8162 10201 10203 28
8163 10201 10204 28
8164 10201 10205 28
8165 10206 10207 28
8166 10206 10208 28
8167 10206 10209 28
8168 10206 10210 28
8169 10211 10212 28
8170 10211 10213 28
8171 10211 10214 28
8172 10211 10215 28
8173 10216 10217 28
8174 10216 10218 28
8175 10216 10219 28
8176 10216 10220 28
8177 10221 10222 28
8178 10221 10223 28
8179 10221 10224 28
8180 10221 10225 28
8181 10226 10227 28
8182 10226 10228 28
8183 10226 10229 28
8184 10226 10230 28
8185 10231 10232 28
8186 10231 10233 28
8187 10231 10234 28
8188 10231 10235 28
8189 10236 10237 28
8190 10236 10238 28
8191 10236 10239 28
8192 10236 10240 28
8193 10241 10242 28
8194 10241 10243 28
8195 10241 10244 28
8196 10241 10245 28
8197 10246 10247 28
8198 10246 10248 28
8199 10246 10249 28
8200 10246 10250 28
8201 10251 10252 28
8202 10251 10253 28
8203 10251 10254 28
8204 10251 10255 28
8205 10256 10257 28
8206 10256 10258 28
8207 10256 10259 28
8208 10256 10260 28
8209 10261 10262 28
8210 10261 10263 28
8211 10261 10264 28
8212 10261 10265 28
8213 10266 10267 28
8214 10266 10268 28
8215 10266 10269 28
8216 10266 10270 28
8217 10271 10272 28
8218 10271 10273 28
8219 10271 10274 28
8220 10271 10275 28
8221 10276 10277 28
8222 10276 10278 28
8223 10276 10279 28
8224 10276 10280 28
8225 10281 10282 28
8226 10281 10283 28
8227 10281 10284 28
8228 10281 10285 28
8229 10286 10287 28
8230 10286 10288 28
8231 10286 10289 28
8232 10286 10290 28
8233 10291 10292 28
8234 10291 10293 28
8235 10291 10294 28
8236 10291 10295 28
8237 10296 10297 28
8238 10296 10298 28
8239 10296 10299 28
8240 10296 10300 28
8241 10301 10302 28
8242 10301 10303 28
8243 10301 10304 28
8244 10301 10305 28
8245 10306 10307 28
8246 10306 10308 28
8247 10306 10309 28
8248 10306 10310 28
8249 10311 10312 28
8250 10311 10313 28
8251 10311 10314 28
8252 10311 10315 28
8253 10316 10317 28
8254 10316 10318 28
8255 10316 10319 28
8256 10316 10320 28
8257 10321 10322 28
8258 10321 10323 28
8259 10321 10324 28
8260 10321 10325 28
8261 10326 10327 28
8262 10326 10328 28
8263 10326 10329 28
8264 10326 10330 28
8265 10331 10332 28
8266 10331 10333 28
8267 10331 10334 28
8268 10331 10335 28
8269 10336 10337 28
8270 10336 10338 28
8271 10336 10339 28
8272 10336 10340 28
8273 10341 10342 28
8274 10341 10343 28
8275 10341 10344 28
8276 10341 10345 28
8277 10346 10347 28
8278 10346 10348 28
8279 10346 10349 28
8280 10346 10350 28
8281 10351 10352 28
8282 10351 10353 28
8283 10351 10354 28
8284 10351 10355 28
8285 10356 10357 28
8286 10356 10358 28
8287 10356 10359 28
8288 10356 10360 28
8289 10361 10362 28
8290 10361 10363 28
8291 10361 10364 28
8292 10361 10365 28
8293 10366 10367 28
8294 10366 10368 28
8295 10366 10369 28
8296 10366 10370 28
8297 10371 10372 28
8298 10371 10373 28
8299 10371 10374 28
8300 10371 10375 28
8301 10376 10377 28
8302 10376 10378 28
8303 10376 10379 28
8304 10376 10380 28
8305 10381 10382 28
8306 10381 10383 28
8307 10381 10384 28
8308 10381 10385 28
8309 10386 10387 28
8310 10386 10388 28
8311 10386 10389 28
8312 10386 10390 28
8313 10391 10392 28
8314 10391 10393 28
8315 10391 10394 28
8316 10391 10395 28
8317 10396 10397 28
8318 10396 10398 28
8319 10396 10399 28
8320 10396 10400 28
8321 10401 10402 28
8322 10401 10403 28
8323 10401 10404 28
8324 10401 10405 28
8325 10406 10407 28
8326 10406 10408 28
8327 10406 10409 28
8328 10406 10410 28
8329 10411 10412 28
8330 10411 10413 28
8331 10411 10414 28
8332 10411 10415 28
8333 10416 10417 28
8334 10416 10418 28
8335 10416 10419 28
8336 10416 10420 28
8337 10421 10422 28
8338 10421 10423 28
8339 10421 10424 28
8340 10421 10425 28
8341 10426 10427 28
8342 10426 10428 28
8343 10426 10429 28
8344 10426 10430 28
8345 10431 10432 28
8346 10431 10433 28
8347 10431 10434 28
8348 10431 10435 28
8349 10436 10437 28
8350 10436 10438 28
8351 10436 10439 28
8352 10436 10440 28
8353 10441 10442 28
8354 10441 10443 28
8355 10441 10444 28
8356 10441 10445 28
8357 10446 10447 28
8358 10446 10448 28
8359 10446 10449 28
8360 10446 10450 28
8361 10451 10452 28
8362 10451 10453 28
8363 10451 10454 28
8364 10451 10455 28
8365 10456 10457 28
8366 10456 10458 28
8367 10456 10459 28
8368 10456 10460 28
8369 10461 10462 28
8370 10461 10463 28
8371 10461 10464 28
8372 10461 10465 28
8373 10466 10467 28
8374 10466 10468 28
8375 10466 10469 28
8376 10466 10470 28
8377 10471 10472 28
8378 10471 10473 28
8379 10471 10474 28
8380 10471 10475 28
8381 10476 10477 28
8382 10476 10478 28
8383 10476 10479 28
8384 10476 10480 28
8385 10481 10482 28
8386 10481 10483 28
8387 10481 10484 28
8388 10481 10485 28
8389 10486 10487 28
8390 10486 10488 28
8391 10486 10489 28
8392 10486 10490 28
8393 10491 10492 28
8394 10491 10493 28
8395 10491 10494 28
8396 10491 10495 28
8397 10496 10497 28
8398 10496 10498 28
8399 10496 10499 28
8400 10496 10500 28
8401 10501 10502 28
8402 10501 10503 28
8403 10501 10504 28
8404 10501 10505 28
8405 10506 10507 28
8406 10506 10508 28
8407 10506 10509 28
8408 10506 10510 28
8409 10511 10512 28
8410 10511 10513 28
8411 10511 10514 28
8412 10511 10515 28
8413 10516 10517 28
8414 10516 10518 28
8415 10516 10519 28
8416 10516 10520 28
8417 10521 10522 28
8418 10521 10523 28
8419 10521 10524 28
8420 10521 10525 28
8421 10526 10527 28
8422 10526 10528 28
8423 10526 10529 28
8424 10526 10530 28
8425 10531 10532 28
8426 10531 10533 28
8427 10531 10534 28
8428 10531 10535 28
8429 10536 10537 28
8430 10536 10538 28
8431 10536 10539 28
8432 10536 10540 28
8433 10541 10542 28
8434 10541 10543 28
8435 10541 10544 28
8436 10541 10545 28
8437 10546 10547 28
8438 10546 10548 28
8439 10546 10549 28
8440 10546 10550 28
8441 10551 10552 28
8442 10551 10553 28
8443 10551 10554 28
8444 10551 10555 28
8445 10556 10557 28
8446 10556 10558 28
8447 10556 10559 28
8448 10556 10560 28
8449 10561 10562 28
8450 10561 10563 28
8451 10561 10564 28
8452 10561 10565 28
8453 10566 10567 28
8454 10566 10568 28
8455 10566 10569 28
8456 10566 10570 28
8457 10571 10572 28
8458 10571 10573 28
8459 10571 10574 28
8460 10571 10575 28
8461 10576 10577 28
8462 10576 10578 28
8463 10576 10579 28
8464 10576 10580 28
8465 10581 10582 28
8466 10581 10583 28
8467 10581 10584 28
8468 10581 10585 28
8469 10586 10587 28
8470 10586 10588 28
8471 10586 10589 28
8472 10586 10590 28
8473 10591 10592 28
8474 10591 10593 28
8475 10591 10594 28
8476 10591 10595 28
8477 10596 10597 28
8478 10596 10598 28
8479 10596 10599 28
8480 10596 10600 28
8481 10601 10602 28
8482 10601 10603 28
8483 10601 10604 28
8484 10601 10605 28
8485 10606 10607 28
8486 10606 10608 28
8487 10606 10609 28
8488 10606 10610 28
8489 10611 10612 28
8490 10611 10613 28
8491 10611 10614 28
8492 10611 10615 28
8493 10616 10617 28
8494 10616 10618 28
8495 10616 10619 28
8496 10616 10620 28
8497 10621 10622 28
8498 10621 10623 28
8499 10621 10624 28
8500 10621 10625 28
8501 10626 10627 28
8502 10626 10628 28
8503 10626 10629 28
8504 10626 10630 28
8505 10631 10632 28
8506 10631 10633 28
8507 10631 10634 28
8508 10631 10635 28
8509 10636 10637 28
8510 10636 10638 28
8511 10636 10639 28
8512 10636 10640 28
8513 10641 10642 28
8514 10641 10643 28
8515 10641 10644 28
8516 10641 10645 28
8517 10646 10647 28
8518 10646 10648 28
8519 10646 10649 28
8520 10646 10650 28
8521 10651 10652 28
8522 10651 10653 28
8523 10651 10654 28
8524 10651 10655 28
8525 10656 10657 28
8526 10656 10658 28
8527 10656 10659 28
8528 10656 10660 28
8529 10661 10662 28
8530 10661 10663 28
8531 10661 10664 28
8532 10661 10665 28
8533 10666 10667 28
8534 10666 10668 28
8535 10666 10669 28
8536 10666 10670 28
8537 10671 10672 28
8538 10671 10673 28
8539 10671 10674 28
8540 10671 10675 28
8541 10676 10677 28
8542 10676 10678 28
8543 10676 10679 28
8544 10676 10680 28
8545 10681 10682 28
8546 10681 10683 28
8547 10681 10684 28
8548 10681 10685 28
8549 10686 10687 28
8550 10686 10688 28
8551 10686 10689 28
8552 10686 10690 28
8553 10691 10692 28
8554 10691 10693 28
8555 10691 10694 28
8556 10691 10695 28
8557 10696 10697 28
8558 10696 10698 28
8559 10696 10699 28
8560 10696 10700 28
8561 10701 10702 28
8562 10701 10703 28
8563 10701 10704 28
8564 10701 10705 28
8565 10706 10707 28
8566 10706 10708 28
8567 10706 10709 28
8568 10706 10710 28
8569 10711 10712 28
8570 10711 10713 28
8571 10711 10714 28
8572 10711 10715 28
8573 10716 10717 28
8574 10716 10718 28
8575 10716 10719 28
8576 10716 10720 28
8577 10721 10722 28
8578 10721 10723 28
8579 10721 10724 28
8580 10721 10725 28
8581 10726 10727 28
8582 10726 10728 28
8583 10726 10729 28
8584 10726 10730 28
8585 10731 10732 28
8586 10731 10733 28
8587 10731 10734 28
8588 10731 10735 28
8589 10736 10737 28
8590 10736 10738 28
8591 10736 10739 28
8592 10736 10740 28
8593 10741 10742 28
8594 10741 10743 28
8595 10741 10744 28
8596 10741 10745 28
8597 10746 10747 28
8598 10746 10748 28
8599 10746 10749 28
8600 10746 10750 28
8601 10751 10752 28
8602 10751 10753 28
8603 10751 10754 28
8604 10751 10755 28
8605 10756 10757 28
8606 10756 10758 28
8607 10756 10759 28
8608 10756 10760 28
8609 10761 10762 28
8610 10761 10763 28
8611 10761 10764 28
8612 10761 10765 28
8613 10766 10767 28
8614 10766 10768 28
8615 10766 10769 28
8616 10766 10770 28
8617 10771 10772 28
8618 10771 10773 28
8619 10771 10774 28
8620 10771 10775 28
8621 10776 10777 28
8622 10776 10778 28
8623 10776 10779 28
8624 10776 10780 28
8625 10781 10782 28
8626 10781 10783 28
8627 10781 10784 28
8628 10781 10785 28
8629 10786 10787 28
8630 10786 10788 28
8631 10786 10789 28
8632 10786 10790 28
8633 10791 10792 28
8634 10791 10793 28
8635 10791 10794 28
8636 10791 10795 28
8637 10796 10797 28
8638 10796 10798 28
8639 10796 10799 28
8640 10796 10800 28
8641 10801 10802 28
8642 10801 10803 28
8643 10801 10804 28
8644 10801 10805 28
8645 10806 10807 28
8646 10806 10808 28
8647 10806 10809 28
8648 10806 10810 28
8649 10811 10812 28
8650 10811 10813 28
8651 10811 10814 28
8652 10811 10815 28
8653 10816 10817 28
8654 10816 10818 28
8655 10816 10819 28
8656 10816 10820 28
8657 10821 10822 28
8658 10821 10823 28
8659 10821 10824 28
8660 10821 10825 28
8661 10826 10827 28
8662 10826 10828 28
8663 10826 10829 28
8664 10826 10830 28
8665 10831 10832 28
8666 10831 10833 28
8667 10831 10834 28
8668 10831 10835 28
8669 10836 10837 28
8670 10836 10838 28
8671 10836 10839 28
8672 10836 10840 28
8673 10841 10842 28
8674 10841 10843 28
8675 10841 10844 28
8676 10841 10845 28
8677 10846 10847 28
8678 10846 10848 28
8679 10846 10849 28
8680 10846 10850 28
8681 10851 10852 28
8682 10851 10853 28
8683 10851 10854 28
8684 10851 10855 28
8685 10856 10857 28
8686 10856 10858 28
8687 10856 10859 28
8688 10856 10860 28
8689 10861 10862 28
8690 10861 10863 28
8691 10861 10864 28
8692 10861 10865 28
8693 10866 10867 28
8694 10866 10868 28
8695 10866 10869 28
8696 10866 10870 28
8697 10871 10872 28
8698 10871 10873 28
8699 10871 10874 28
8700 10871 10875 28
8701 10876 10877 28
8702 10876 10878 28
8703 10876 10879 28
8704 10876 10880 28
8705 10881 10882 28
8706 10881 10883 28
8707 10881 10884 28
8708 10881 10885 28
8709 10886 10887 28
8710 10886 10888 28
8711 10886 10889 28
8712 10886 10890 28
8713 10891 10892 28
8714 10891 10893 28
8715 10891 10894 28
8716 10891 10895 28
8717 10896 10897 28
8718 10896 10898 28
8719 10896 10899 28
8720 10896 10900 28
8721 10901 10902 28
8722 10901 10903 28
8723 10901 10904 28
8724 10901 10905 28
8725 10906 10907 28
8726 10906 10908 28
8727 10906 10909 28
8728 10906 10910 28
8729 10911 10912 28
8730 10911 10913 28
8731 10911 10914 28
8732 10911 10915 28
8733 10916 10917 28
8734 10916 10918 28
8735 10916 10919 28
8736 10916 10920 28
8737 10921 10922 28
8738 10921 10923 28
8739 10921 10924 28
8740 10921 10925 28
8741 10926 10927 28
8742 10926 10928 28
8743 10926 10929 28
8744 10926 10930 28
8745 10931 10932 28
8746 10931 10933 28
8747 10931 10934 28
8748 10931 10935 28
8749 10936 10937 28
8750 10936 10938 28
8751 10936 10939 28
8752 10936 10940 28
8753 10941 10942 28
8754 10941 10943 28
8755 10941 10944 28
8756 10941 10945 28
8757 10946 10947 28
8758 10946 10948 28
8759 10946 10949 28
8760 10946 10950 28
8761 10951 10952 28
8762 10951 10953 28
8763 10951 10954 28
8764 10951 10955 28
8765 10956 10957 28
8766 10956 10958 28
8767 10956 10959 28
8768 10956 10960 28
8769 10961 10962 28
8770 10961 10963 28
8771 10961 10964 28
8772 10961 10965 28
8773 10966 10967 28
8774 10966 10968 28
8775 10966 10969 28
8776 10966 10970 28
8777 10971 10972 28
8778 10971 10973 28
8779 10971 10974 28
8780 10971 10975 28
8781 10976 10977 28
8782 10976 10978 28
8783 10976 10979 28
8784 10976 10980 28
8785 10981 10982 28
8786 10981 10983 28
8787 10981 10984 28
8788 10981 10985 28
8789 10986 10987 28
8790 10986 10988 28
8791 10986 10989 28
8792 10986 10990 28
8793 10991 10992 28
8794 10991 10993 28
8795 10991 10994 28
8796 10991 10995 28
8797 10996 10997 28
8798 10996 10998 28
8799 10996 10999 28
8800 10996 11000 28
8801 11001 11002 28
8802 11001 11003 28
8803 11001 11004 28
8804 11001 11005 28
8805 11006 11007 28
8806 11006 11008 28
8807 11006 11009 28
8808 11006 11010 28
8809 11011 11012 28
8810 11011 11013 28
8811 11011 11014 28
8812 11011 11015 28
8813 11016 11017 28
8814 11016 11018 28
8815 11016 11019 28
8816 11016 11020 28
8817 11021 11022 28
8818 11021 11023 28
8819 11021 11024 28
8820 11021 11025 28
8821 11026 11027 28
8822 11026 11028 28
8823 11026 11029 28
8824 11026 11030 28
8825 11031 11032 28
8826 11031 11033 28
8827 11031 11034 28
8828 11031 11035 28
8829 11036 11037 28
8830 11036 11038 28
8831 11036 11039 28
8832 11036 11040 28
8833 11041 11042 28
8834 11041 11043 28
8835 11041 11044 28
8836 11041 11045 28
8837 11046 11047 28
8838 11046 11048 28
8839 11046 11049 28
8840 11046 11050 28
8841 11051 11052 28
8842 11051 11053 28
8843 11051 11054 28
8844 11051 11055 28
8845 11056 11057 28
8846 11056 11058 28
8847 11056 11059 28
8848 11056 11060 28
8849 11061 11062 28
8850 11061 11063 28
8851 11061 11064 28
8852 11061 11065 28
8853 11066 11067 28
8854 11066 11068 28
8855 11066 11069 28
8856 11066 11070 28
8857 11071 11072 28
8858 11071 11073 28
8859 11071 11074 28
8860 11071 11075 28
8861 11076 11077 28
8862 11076 11078 28
8863 11076 11079 28
8864 11076 11080 28
8865 11081 11082 28
8866 11081 11083 28
8867 11081 11084 28
8868 11081 11085 28
8869 11086 11087 28
8870 11086 11088 28
8871 11086 11089 28
8872 11086 11090 28
8873 11091 11092 28
8874 11091 11093 28
8875 11091 11094 28
8876 11091 11095 28
8877 11096 11097 28
8878 11096 11098 28
8879 11096 11099 28
8880 11096 11100 28
8881 11101 11102 28
8882 11101 11103 28
8883 11101 11104 28
8884 11101 11105 28
8885 11106 11107 28
8886 11106 11108 28
8887 11106 11109 28
8888 11106 11110 28
8889 11111 11112 28
8890 11111 11113 28
8891 11111 11114 28
8892 11111 11115 28
8893 11116 11117 28
8894 11116 11118 28
8895 11116 11119 28
8896 11116 11120 28
8897 11121 11122 28
8898 11121 11123 28
8899 11121 11124 28
8900 11121 11125 28
8901 11126 11127 28
8902 11126 11128 28
8903 11126 11129 28
8904 11126 11130 28
8905 11131 11132 28
8906 11131 11133 28
8907 11131 11134 28
8908 11131 11135 28
8909 11136 11137 28
8910 11136 11138 28
8911 11136 11139 28
8912 11136 11140 28
8913 11141 11142 28
8914 11141 11143 28
8915 11141 11144 28
8916 11141 11145 28
8917 11146 11147 28
8918 11146 11148 28
8919 11146 11149 28
8920 11146 11150 28
8921 11151 11152 28
8922 11151 11153 28
8923 11151 11154 28
8924 11151 11155 28
8925 11156 11157 28
8926 11156 11158 28
8927 11156 11159 28
8928 11156 11160 28
8929 11161 11162 28
8930 11161 11163 28
8931 11161 11164 28
8932 11161 11165 28
8933 11166 11167 28
8934 11166 11168 28
8935 11166 11169 28
8936 11166 11170 28
8937 11171 11172 28
8938 11171 11173 28
8939 11171 11174 28
8940 11171 11175 28
8941 11176 11177 28
8942 11176 11178 28
8943 11176 11179 28
8944 11176 11180 28
8945 11181 11182 28
8946 11181 11183 28
8947 11181 11184 28
8948 11181 11185 28
8949 11186 11187 28
8950 11186 11188 28
8951 11186 11189 28
8952 11186 11190 28
8953 11191 11192 28
8954 11191 11193 28
8955 11191 11194 28
8956 11191 11195 28
8957 11196 11197 28
8958 11196 11198 28
8959 11196 11199 28
8960 11196 11200 28
8961 11201 11202 28
8962 11201 11203 28
8963 11201 11204 28
8964 11201 11205 28
8965 11206 11207 28
8966 11206 11208 28
8967 11206 11209 28
8968 11206 11210 28
8969 11211 11212 28
8970 11211 11213 28
8971 11211 11214 28
8972 11211 11215 28
8973 11216 11217 28
8974 11216 11218 28
8975 11216 11219 28
8976 11216 11220 28
8977 11221 11222 28
8978 11221 11223 28
8979 11221 11224 28
8980 11221 11225 28
8981 11226 11227 28
8982 11226 11228 28
8983 11226 11229 28
8984 11226 11230 28
8985 11231 11232 28
8986 11231 11233 28
8987 11231 11234 28
8988 11231 11235 28
8989 11236 11237 28
8990 11236 11238 28
8991 11236 11239 28
8992 11236 11240 28
8993 11241 11242 28
8994 11241 11243 28
8995 11241 11244 28
8996 11241 11245 28
8997 11246 11247 28
8998 11246 11248 28
8999 11246 11249 28
9000 11246 11250 28
9001 11251 11252 28
9002 11251 11253 28
9003 11251 11254 28
9004 11251 11255 28
9005 11256 11257 28
9006 11256 11258 28
9007 11256 11259 28
9008 11256 11260 28
9009 11261 11262 28
9010 11261 11263 28
9011 11261 11264 28
9012 11261 11265 28
9013 11266 11267 28
9014 11266 11268 28
9015 11266 11269 28
9016 11266 11270 28
9017 11271 11272 28
9018 11271 11273 28
9019 11271 11274 28
9020 11271 11275 28
9021 11276 11277 28
9022 11276 11278 28
9023 11276 11279 28
9024 11276 11280 28
9025 11281 11282 28
9026 11281 11283 28
9027 11281 11284 28
9028 11281 11285 28
9029 11286 11287 28
9030 11286 11288 28
9031 11286 11289 28
9032 11286 11290 28
9033 11291 11292 28
9034 11291 11293 28
9035 11291 11294 28
9036 11291 11295 28
9037 11296 11297 28
9038 11296 11298 28
9039 11296 11299 28
9040 11296 11300 28
9041 11301 11302 28
9042 11301 11303 28
9043 11301 11304 28
9044 11301 11305 28
9045 11306 11307 28
9046 11306 11308 28
9047 11306 11309 28
9048 11306 11310 28
9049 11311 11312 28
9050 11311 11313 28
9051 11311 11314 28
9052 11311 11315 28
9053 11316 11317 28
9054 11316 11318 28
9055 11316 11319 28
9056 11316 11320 28
9057 11321 11322 28
9058 11321 11323 28
9059 11321 11324 28
9060 11321 11325 28
9061 11326 11327 28
9062 11326 11328 28
9063 11326 11329 28
9064 11326 11330 28
9065 11331 11332 28
9066 11331 11333 28
9067 11331 11334 28
9068 11331 11335 28
9069 11336 11337 28
9070 11336 11338 28
9071 11336 11339 28
9072 11336 11340 28
9073 11341 11342 28
9074 11341 11343 28
9075 11341 11344 28
9076 11341 11345 28
9077 11346 11347 28
9078 11346 11348 28
9079 11346 11349 28
9080 11346 11350 28
9081 11351 11352 28
9082 11351 11353 28
9083 11351 11354 28
9084 11351 11355 28
9085 11356 11357 28
9086 11356 11358 28
9087 11356 11359 28
9088 11356 11360 28
9089 11361 11362 28
9090 11361 11363 28
9091 11361 11364 28
9092 11361 11365 28
9093 11366 11367 28
9094 11366 11368 28
9095 11366 11369 28
9096 11366 11370 28
9097 11371 11372 28
9098 11371 11373 28
9099 11371 11374 28
9100 11371 11375 28
9101 11376 11377 28
9102 11376 11378 28
9103 11376 11379 28
9104 11376 11380 28
9105 11381 11382 28
9106 11381 11383 28
9107 11381 11384 28
9108 11381 11385 28
9109 11386 11387 28
9110 11386 11388 28
9111 11386 11389 28
9112 11386 11390 28
9113 11391 11392 28
9114 11391 11393 28
9115 11391 11394 28
9116 11391 11395 28
9117 11396 11397 28
9118 11396 11398 28
9119 11396 11399 28
9120 11396 11400 28
9121 11401 11402 28
9122 11401 11403 28
9123 11401 11404 28
9124 11401 11405 28
9125 11406 11407 28
9126 11406 11408 28
9127 11406 11409 28
9128 11406 11410 28
9129 11411 11412 28
9130 11411 11413 28
9131 11411 11414 28
9132 11411 11415 28
9133 11416 11417 28
9134 11416 11418 28
9135 11416 11419 28
9136 11416 11420 28
9137 11421 11422 28
9138 11421 11423 28
9139 11421 11424 28
9140 11421 11425 28
9141 11426 11427 28
9142 11426 11428 28
9143 11426 11429 28
9144 11426 11430 28
9145 11431 11432 28
9146 11431 11433 28
9147 11431 11434 28
9148 11431 11435 28
9149 11436 11437 28
9150 11436 11438 28
9151 11436 11439 28
9152 11436 11440 28
9153 11441 11442 28
9154 11441 11443 28
9155 11441 11444 28
9156 11441 11445 28
9157 11446 11447 28
9158 11446 11448 28
9159 11446 11449 28
9160 11446 11450 28
9161 11451 11452 28
9162 11451 11453 28
9163 11451 11454 28
9164 11451 11455 28
9165 11456 11457 28
9166 11456 11458 28
9167 11456 11459 28
9168 11456 11460 28
9169 11461 11462 28
9170 11461 11463 28
9171 11461 11464 28
9172 11461 11465 28
9173 11466 11467 28
9174 11466 11468 28
9175 11466 11469 28
9176 11466 11470 28
9177 11471 11472 28
9178 11471 11473 28
9179 11471 11474 28
9180 11471 11475 28
9181 11476 11477 28
9182 11476 11478 28
9183 11476 11479 28
9184 11476 11480 28
9185 11481 11482 28
9186 11481 11483 28
9187 11481 11484 28
9188 11481 11485 28
9189 11486 11487 28
9190 11486 11488 28
9191 11486 11489 28
9192 11486 11490 28
9193 11491 11492 28
9194 11491 11493 28
9195 11491 11494 28
9196 11491 11495 28
9197 11496 11497 28
9198 11496 11498 28
9199 11496 11499 28
9200 11496 11500 28
9201 11501 11502 28
9202 11501 11503 28
9203 11501 11504 28
9204 11501 11505 28
9205 11506 11507 28
9206 11506 11508 28
9207 11506 11509 28
9208 11506 11510 28
9209 11511 11512 28
9210 11511 11513 28
9211 11511 11514 28
9212 11511 11515 28
9213 11516 11517 28
9214 11516 11518 28
9215 11516 11519 28
9216 11516 11520 28
9217 11521 11522 28
9218 11521 11523 28
9219 11521 11524 28
9220 11521 11525 28
9221 11526 11527 28
9222 11526 11528 28
9223 11526 11529 28
9224 11526 11530 28
9225 11531 11532 28
9226 11531 11533 28
9227 11531 11534 28
9228 11531 11535 28
9229 11536 11537 28
9230 11536 11538 28
9231 11536 11539 28
9232 11536 11540 28
9233 11541 11542 28
9234 11541 11543 28
9235 11541 11544 28
9236 11541 11545 28
9237 11546 11547 28
9238 11546 11548 28
9239 11546 11549 28
9240 11546 11550 28
9241 11551 11552 28
9242 11551 11553 28
9243 11551 11554 28
9244 11551 11555 28
9245 11556 11557 28
9246 11556 11558 28
9247 11556 11559 28
9248 11556 11560 28
9249 11561 11562 28
9250 11561 11563 28
9251 11561 11564 28
9252 11561 11565 28
9253 11566 11567 28
9254 11566 11568 28
9255 11566 11569 28
9256 11566 11570 28
9257 11571 11572 28
9258 11571 11573 28
9259 11571 11574 28
9260 11571 11575 28
9261 11576 11577 28
9262 11576 11578 28
9263 11576 11579 28
9264 11576 11580 28
9265 11581 11582 28
9266 11581 11583 28
9267 11581 11584 28
9268 11581 11585 28
9269 11586 11587 28
9270 11586 11588 28
9271 11586 11589 28
9272 11586 11590 28
9273 11591 11592 28
9274 11591 11593 28
9275 11591 11594 28
9276 11591 11595 28
9277 11596 11597 28
9278 11596 11598 28
9279 11596 11599 28
9280 11596 11600 28
9281 11601 11602 28
9282 11601 11603 28
9283 11601 11604 28
9284 11601 11605 28
9285 11606 11607 28
9286 11606 11608 28
9287 11606 11609 28
9288 11606 11610 28
9289 11611 11612 28
9290 11611 11613 28
9291 11611 11614 28
9292 11611 11615 28
9293 11616 11617 28
9294 11616 11618 28
9295 11616 11619 28
9296 11616 11620 28
9297 11621 11622 28
9298 11621 11623 28
9299 11621 11624 28
9300 11621 11625 28
9301 11626 11627 28
9302 11626 11628 28
9303 11626 11629 28
9304 11626 11630 28
9305 11631 11632 28
9306 11631 11633 28
9307 11631 11634 28
9308 11631 11635 28
9309 11636 11637 28
9310 11636 11638 28
9311 11636 11639 28
9312 11636 11640 28
9313 11641 11642 28
9314 11641 11643 28
9315 11641 11644 28
9316 11641 11645 28
9317 11646 11647 28
9318 11646 11648 28
9319 11646 11649 28
9320 11646 11650 28
9321 11651 11652 28
9322 11651 11653 28
9323 11651 11654 28
9324 11651 11655 28
9325 11656 11657 28
9326 11656 11658 28
9327 11656 11659 28
9328 11656 11660 28
9329 11661 11662 28
9330 11661 11663 28
9331 11661 11664 28
9332 11661 11665 28
9333 11666 11667 28
9334 11666 11668 28
9335 11666 11669 28
9336 11666 11670 28
9337 11671 11672 28
9338 11671 11673 28
9339 11671 11674 28
9340 11671 11675 28
9341 11676 11677 28
9342 11676 11678 28
9343 11676 11679 28
9344 11676 11680 28
9345 11681 11682 28
9346 11681 11683 28
9347 11681 11684 28
9348 11681 11685 28
9349 11686 11687 28
9350 11686 11688 28
9351 11686 11689 28
9352 11686 11690 28
9353 11691 11692 28
9354 11691 11693 28
9355 11691 11694 28
9356 11691 11695 28
9357 11696 11697 28
9358 11696 11698 28
9359 11696 11699 28
9360 11696 11700 28
9361 11701 11702 28
9362 11701 11703 28
9363 11701 11704 28
9364 11701 11705 28
9365 11706 11707 28
9366 11706 11708 28
9367 11706 11709 28
9368 11706 11710 28
9369 11711 11712 28
9370 11711 11713 28
9371 11711 11714 28
9372 11711 11715 28
9373 11716 11717 28
9374 11716 11718 28
9375 11716 11719 28
9376 11716 11720 28
9377 11721 11722 28
9378 11721 11723 28
9379 11721 11724 28
9380 11721 11725 28
9381 11726 11727 28
9382 11726 11728 28
9383 11726 11729 28
9384 11726 11730 28
9385 11731 11732 28
9386 11731 11733 28
9387 11731 11734 28
9388 11731 11735 28
9389 11736 11737 28
9390 11736 11738 28
9391 11736 11739 28
9392 11736 11740 28
9393 11741 11742 28
9394 11741 11743 28
9395 11741 11744 28
9396 11741 11745 28
9397 11746 11747 28
9398 11746 11748 28
9399 11746 11749 28
9400 11746 11750 28
9401 11751 11752 28
9402 11751 11753 28
9403 11751 11754 28
9404 11751 11755 28
9405 11756 11757 28
9406 11756 11758 28
9407 11756 11759 28
9408 11756 11760 28
9409 11761 11762 28
9410 11761 11763 28
9411 11761 11764 28
9412 11761 11765 28
9413 11766 11767 28
9414 11766 11768 28
9415 11766 11769 28
9416 11766 11770 28
9417 11771 11772 28
9418 11771 11773 28
9419 11771 11774 28
9420 11771 11775 28
9421 11776 11777 28
9422 11776 11778 28
9423 11776 11779 28
9424 11776 11780 28
9425 11781 11782 28
9426 11781 11783 28
9427 11781 11784 28
9428 11781 11785 28
9429 11786 11787 28
9430 11786 11788 28
9431 11786 11789 28
9432 11786 11790 28
9433 11791 11792 28
9434 11791 11793 28
9435 11791 11794 28
9436 11791 11795 28
9437 11796 11797 28
9438 11796 11798 28
9439 11796 11799 28
9440 11796 11800 28
9441 11801 11802 28
9442 11801 11803 28
9443 11801 11804 28
9444 11801 11805 28
9445 11806 11807 28
9446 11806 11808 28
9447 11806 11809 28
9448 11806 11810 28
9449 11811 11812 28
9450 11811 11813 28
9451 11811 11814 28
9452 11811 11815 28
9453 11816 11817 28
9454 11816 11818 28
9455 11816 11819 28
9456 11816 11820 28
9457 11821 11822 28
9458 11821 11823 28
9459 11821 11824 28
9460 11821 11825 28
9461 11826 11827 28
9462 11826 11828 28
9463 11826 11829 28
9464 11826 11830 28
9465 11831 11832 28
9466 11831 11833 28
9467 11831 11834 28
9468 11831 11835 28
9469 11836 11837 28
9470 11836 11838 28
9471 11836 11839 28
9472 11836 11840 28
9473 11841 11842 28
9474 11841 11843 28
9475 11841 11844 28
9476 11841 11845 28
9477 11846 11847 28
9478 11846 11848 28
9479 11846 11849 28
9480 11846 11850 28
9481 11851 11852 28
9482 11851 11853 28
9483 11851 11854 28
9484 11851 11855 28
9485 11856 11857 28
9486 11856 11858 28
9487 11856 11859 28
9488 11856 11860 28
9489 11861 11862 28
9490 11861 11863 28
9491 11861 11864 28
9492 11861 11865 28
9493 11866 11867 28
9494 11866 11868 28
9495 11866 11869 28
9496 11866 11870 28
9497 11871 11872 28
9498 11871 11873 28
9499 11871 11874 28
9500 11871 11875 28
9501 11876 11877 28
9502 11876 11878 28
9503 11876 11879 28
9504 11876 11880 28
9505 11881 11882 28
9506 11881 11883 28
9507 11881 11884 28
9508 11881 11885 28
9509 11886 11887 28
9510 11886 11888 28
9511 11886 11889 28
9512 11886 11890 28
9513 11891 11892 28
9514 11891 11893 28
9515 11891 11894 28
9516 11891 11895 28
9517 11896 11897 28
9518 11896 11898 28
9519 11896 11899 28
9520 11896 11900 28
9521 11901 11902 28
9522 11901 11903 28
9523 11901 11904 28
9524 11901 11905 28
9525 11906 11907 28
9526 11906 11908 28
9527 11906 11909 28
9528 11906 11910 28
9529 11911 11912 28
9530 11911 11913 28
9531 11911 11914 28
9532 11911 11915 28
9533 11916 11917 28
9534 11916 11918 28
9535 11916 11919 28
9536 11916 11920 28
9537 11921 11922 28
9538 11921 11923 28
9539 11921 11924 28
9540 11921 11925 28
9541 11926 11927 28
9542 11926 11928 28
9543 11926 11929 28
9544 11926 11930 28
9545 11931 11932 28
9546 11931 11933 28
9547 11931 11934 28
9548 11931 11935 28
9549 11936 11937 28
9550 11936 11938 28
9551 11936 11939 28
9552 11936 11940 28
9553 11941 11942 28
9554 11941 11943 28
9555 11941 11944 28
9556 11941 11945 28
9557 11946 11947 28
9558 11946 11948 28
9559 11946 11949 28
9560 11946 11950 28
9561 11951 11952 28
9562 11951 11953 28
9563 11951 11954 28
9564 11951 11955 28
9565 11956 11957 28
9566 11956 11958 28
9567 11956 11959 28
9568 11956 11960 28
9569 11961 11962 28
9570 11961 11963 28
9571 11961 11964 28
9572 11961 11965 28
9573 11966 11967 28
9574 11966 11968 28
9575 11966 11969 28
9576 11966 11970 28
9577 11971 11972 28
9578 11971 11973 28
9579 11971 11974 28
9580 11971 11975 28
9581 11976 11977 28
9582 11976 11978 28
9583 11976 11979 28
9584 11976 11980 28
9585 11981 11982 28
9586 11981 11983 28
9587 11981 11984 28
9588 11981 11985 28
9589 11986 11987 28
9590 11986 11988 28
9591 11986 11989 28
9592 11986 11990 28
9593 11991 11992 28
9594 11991 11993 28
9595 11991 11994 28
9596 11991 11995 28
9597 11996 11997 28
9598 11996 11998 28
9599 11996 11999 28
9600 11996 12000 28
9601 12001 12002 28
9602 12001 12003 28
9603 12001 12004 28
9604 12001 12005 28
9605 12006 12007 28
9606 12006 12008 28
9607 12006 12009 28
9608 12006 12010 28
9609 12011 12012 28
9610 12011 12013 28
9611 12011 12014 28
9612 12011 12015 28
9613 12016 12017 28
9614 12016 12018 28
9615 12016 12019 28
9616 12016 12020 28
9617 12021 12022 28
9618 12021 12023 28
9619 12021 12024 28
9620 12021 12025 28
9621 12026 12027 28
9622 12026 12028 28
9623 12026 12029 28
9624 12026 12030 28
9625 12031 12032 28
9626 12031 12033 28
9627 12031 12034 28
9628 12031 12035 28
9629 12036 12037 28
9630 12036 12038 28
9631 12036 12039 28
9632 12036 12040 28
9633 12041 12042 28
9634 12041 12043 28
9635 12041 12044 28
9636 12041 12045 28
9637 12046 12047 28
9638 12046 12048 28
9639 12046 12049 28
9640 12046 12050 28
9641 12051 12052 28
9642 12051 12053 28
9643 12051 12054 28
9644 12051 12055 28
9645 12056 12057 28
9646 12056 12058 28
9647 12056 12059 28
9648 12056 12060 28
9649 12061 12062 28
9650 12061 12063 28
9651 12061 12064 28
9652 12061 12065 28
9653 12066 12067 28
9654 12066 12068 28
9655 12066 12069 28
9656 12066 12070 28
9657 12071 12072 28
9658 12071 12073 28
9659 12071 12074 28
9660 12071 12075 28
9661 12076 12077 28
9662 12076 12078 28
9663 12076 12079 28
9664 12076 12080 28
9665 12081 12082 28
9666 12081 12083 28
9667 12081 12084 28
9668 12081 12085 28
9669 12086 12087 28
9670 12086 12088 28
9671 12086 12089 28
9672 12086 12090 28
9673 12091 12092 28
9674 12091 12093 28
9675 12091 12094 28
9676 12091 12095 28
9677 12096 12097 28
9678 12096 12098 28
9679 12096 12099 28
9680 12096 12100 28
9681 12101 12102 28
9682 12101 12103 28
9683 12101 12104 28
9684 12101 12105 28
9685 12106 12107 28
9686 12106 12108 28
9687 12106 12109 28
9688 12106 12110 28
9689 12111 12112 28
9690 12111 12113 28
9691 12111 12114 28
9692 12111 12115 28
9693 12116 12117 28
9694 12116 12118 28
9695 12116 12119 28
9696 12116 12120 28
9697 12121 12122 28
9698 12121 12123 28
9699 12121 12124 28
9700 12121 12125 28
9701 12126 12127 28
9702 12126 12128 28
9703 12126 12129 28
9704 12126 12130 28
9705 12131 12132 28
9706 12131 12133 28
9707 12131 12134 28
9708 12131 12135 28
9709 12136 12137 28
9710 12136 12138 28
9711 12136 12139 28
9712 12136 12140 28
9713 12141 12142 28
9714 12141 12143 28
9715 12141 12144 28
9716 12141 12145 28
9717 12146 12147 28
9718 12146 12148 28
9719 12146 12149 28
9720 12146 12150 28
9721 12151 12152 28
9722 12151 12153 28
9723 12151 12154 28
9724 12151 12155 28
9725 12156 12157 28
9726 12156 12158 28
9727 12156 12159 28
9728 12156 12160 28
9729 12161 12162 28
9730 12161 12163 28
9731 12161 12164 28
9732 12161 12165 28
9733 12166 12167 28
9734 12166 12168 28
9735 12166 12169 28
9736 12166 12170 28
9737 12171 12172 28
9738 12171 12173 28
9739 12171 12174 28
9740 12171 12175 28
9741 12176 12177 28
9742 12176 12178 28
9743 12176 12179 28
9744 12176 12180 28
9745 12181 12182 28
9746 12181 12183 28
9747 12181 12184 28
9748 12181 12185 28
9749 12186 12187 28
9750 12186 12188 28
9751 12186 12189 28
9752 12186 12190 28
9753 12191 12192 28
9754 12191 12193 28
9755 12191 12194 28
9756 12191 12195 28
9757 12196 12197 28
9758 12196 12198 28
9759 12196 12199 28
9760 12196 12200 28
9761 12201 12202 28
9762 12201 12203 28
9763 12201 12204 28
9764 12201 12205 28
9765 12206 12207 28
9766 12206 12208 28
9767 12206 12209 28
9768 12206 12210 28
9769 12211 12212 28
9770 12211 12213 28
9771 12211 12214 28
9772 12211 12215 28
9773 12216 12217 28
9774 12216 12218 28
9775 12216 12219 28
9776 12216 12220 28
9777 12221 12222 28
9778 12221 12223 28
9779 12221 12224 28
9780 12221 12225 28
9781 12226 12227 28
9782 12226 12228 28
9783 12226 12229 28
9784 12226 12230 28
9785 12231 12232 28
9786 12231 12233 28
9787 12231 12234 28
9788 12231 12235 28
9789 12236 12237 28
9790 12236 12238 28
9791 12236 12239 28
9792 12236 12240 28
9793 12241 12242 28
9794 12241 12243 28
9795 12241 12244 28
9796 12241 12245 28
9797 12246 12247 28
9798 12246 12248 28
9799 12246 12249 28
9800 12246 12250 28
9801 12251 12252 28
9802 12251 12253 28
9803 12251 12254 28
9804 12251 12255 28
9805 12256 12257 28
9806 12256 12258 28
9807 12256 12259 28
9808 12256 12260 28
9809 12261 12262 28
9810 12261 12263 28
9811 12261 12264 28
9812 12261 12265 28
9813 12266 12267 28
9814 12266 12268 28
9815 12266 12269 28
9816 12266 12270 28
9817 12271 12272 28
9818 12271 12273 28
9819 12271 12274 28
9820 12271 12275 28
9821 12276 12277 28
9822 12276 12278 28
9823 12276 12279 28
9824 12276 12280 28
9825 12281 12282 28
9826 12281 12283 28
9827 12281 12284 28
9828 12281 12285 28
9829 12286 12287 28
9830 12286 12288 28
9831 12286 12289 28
9832 12286 12290 28
9833 12291 12292 28
9834 12291 12293 28
9835 12291 12294 28
9836 12291 12295 28
9837 12296 12297 28
9838 12296 12298 28
9839 12296 12299 28
9840 12296 12300 28
9841 12301 12302 28
9842 12301 12303 28
9843 12301 12304 28
9844 12301 12305 28
9845 12306 12307 28
9846 12306 12308 28
9847 12306 12309 28
9848 12306 12310 28
9849 12311 12312 28
9850 12311 12313 28
9851 12311 12314 28
9852 12311 12315 28
9853 12316 12317 28
9854 12316 12318 28
9855 12316 12319 28
9856 12316 12320 28
9857 12321 12322 28
9858 12321 12323 28
9859 12321 12324 28
9860 12321 12325 28
9861 12326 12327 28
9862 12326 12328 28
9863 12326 12329 28
9864 12326 12330 28
9865 12331 12332 28
9866 12331 12333 28
9867 12331 12334 28
9868 12331 12335 28
9869 12336 12337 28
9870 12336 12338 28
9871 12336 12339 28
9872 12336 12340 28
9873 12341 12342 28
9874 12341 12343 28
9875 12341 12344 28
9876 12341 12345 28
9877 12346 12347 28
9878 12346 12348 28
9879 12346 12349 28
9880 12346 12350 28
9881 12351 12352 28
9882 12351 12353 28
9883 12351 12354 28
9884 12351 12355 28
9885 12356 12357 28
9886 12356 12358 28
9887 12356 12359 28
9888 12356 12360 28
9889 12361 12362 28
9890 12361 12363 28
9891 12361 12364 28
9892 12361 12365 28
9893 12366 12367 28
9894 12366 12368 28
9895 12366 12369 28
9896 12366 12370 28
9897 12371 12372 28
9898 12371 12373 28
9899 12371 12374 28
9900 12371 12375 28
9901 12376 12377 28
9902 12376 12378 28
9903 12376 12379 28
9904 12376 12380 28
9905 12381 12382 28
9906 12381 12383 28
9907 12381 12384 28
9908 12381 12385 28
9909 12386 12387 28
9910 12386 12388 28
9911 12386 12389 28
9912 12386 12390 28
9913 12391 12392 28
9914 12391 12393 28
9915 12391 12394 28
9916 12391 12395 28
9917 12396 12397 28
9918 12396 12398 28
9919 12396 12399 28
9920 12396 12400 28
9921 12401 12402 28
9922 12401 12403 28
9923 12401 12404 28
9924 12401 12405 28
9925 12406 12407 28
9926 12406 12408 28
9927 12406 12409 28
9928 12406 12410 28
9929 12411 12412 28
9930 12411 12413 28
9931 12411 12414 28
9932 12411 12415 28
9933 12416 12417 28
9934 12416 12418 28
9935 12416 12419 28
9936 12416 12420 28
9937 12421 12422 28
9938 12421 12423 28
9939 12421 12424 28
9940 12421 12425 28
9941 12426 12427 28
9942 12426 12428 28
9943 12426 12429 28
9944 12426 12430 28
9945 12431 12432 28
9946 12431 12433 28
9947 12431 12434 28
9948 12431 12435 28
9949 12436 12437 28
9950 12436 12438 28
9951 12436 12439 28
9952 12436 12440 28
9953 12441 12442 28
9954 12441 12443 28
9955 12441 12444 28
9956 12441 12445 28
9957 12446 12447 28
9958 12446 12448 28
9959 12446 12449 28
9960 12446 12450 28
9961 12451 12452 28
9962 12451 12453 28
9963 12451 12454 28
9964 12451 12455 28
9965 12456 12457 28
9966 12456 12458 28
9967 12456 12459 28
9968 12456 12460 28
9969 12461 12462 28
9970 12461 12463 28
9971 12461 12464 28
9972 12461 12465 28
9973 12466 12467 28
9974 12466 12468 28
9975 12466 12469 28
9976 12466 12470 28
9977 12471 12472 28
9978 12471 12473 28
9979 12471 12474 28
9980 12471 12475 28
9981 12476 12477 28
9982 12476 12478 28
9983 12476 12479 28
9984 12476 12480 28
9985 12481 12482 28
9986 12481 12483 28
9987 12481 12484 28
9988 12481 12485 28
9989 12486 12487 28
9990 12486 12488 28
9991 12486 12489 28
9992 12486 12490 28
9993 12491 12492 28
9994 12491 12493 28
9995 12491 12494 28
9996 12491 12495 28
9997 12496 12497 28
9998 12496 12498 28
9999 12496 12499 28
10000 12496 12500 28
10001 12501 12502 28
10002 12501 12503 28
10003 12501 12504 28
10004 12501 12505 28
10005 12506 12507 28
10006 12506 12508 28
10007 12506 12509 28
10008 12506 12510 28
10009 12511 12512 28
10010 12511 12513 28
10011 12511 12514 28
10012 12511 12515 28
10013 12516 12517 28
10014 12516 12518 28
10015 12516 12519 28
10016 12516 12520 28
10017 12521 12522 28
10018 12521 12523 28
10019 12521 12524 28
10020 12521 12525 28
10021 12526 12527 28
10022 12526 12528 28
10023 12526 12529 28
10024 12526 12530 28
10025 12531 12532 28
10026 12531 12533 28
10027 12531 12534 28
10028 12531 12535 28
10029 12536 12537 28
10030 12536 12538 28
10031 12536 12539 28
10032 12536 12540 28
10033 12541 12542 28
10034 12541 12543 28
10035 12541 12544 28
10036 12541 12545 28
10037 12546 12547 28
10038 12546 12548 28
10039 12546 12549 28
10040 12546 12550 28
10041 12551 12552 28
10042 12551 12553 28
10043 12551 12554 28
10044 12551 12555 28
10045 12556 12557 28
10046 12556 12558 28
10047 12556 12559 28
10048 12556 12560 28
10049 12561 12562 28
10050 12561 12563 28
10051 12561 12564 28
10052 12561 12565 28
10053 12566 12567 28
10054 12566 12568 28
10055 12566 12569 28
10056 12566 12570 28
10057 12571 12572 28
10058 12571 12573 28
10059 12571 12574 28
10060 12571 12575 28
10061 12576 12577 28
10062 12576 12578 28
10063 12576 12579 28
10064 12576 12580 28
10065 12581 12582 28
10066 12581 12583 28
10067 12581 12584 28
10068 12581 12585 28
10069 12586 12587 28
10070 12586 12588 28
10071 12586 12589 28
10072 12586 12590 28
10073 12591 12592 28
10074 12591 12593 28
10075 12591 12594 28
10076 12591 12595 28
10077 12596 12597 28
10078 12596 12598 28
10079 12596 12599 28
10080 12596 12600 28
10081 12601 12602 28
10082 12601 12603 28
10083 12601 12604 28
10084 12601 12605 28
10085 12606 12607 28
10086 12606 12608 28
10087 12606 12609 28
10088 12606 12610 28
10089 12611 12612 28
10090 12611 12613 28
10091 12611 12614 28
10092 12611 12615 28
10093 12616 12617 28
10094 12616 12618 28
10095 12616 12619 28
10096 12616 12620 28
10097 12621 12622 28
10098 12621 12623 28
10099 12621 12624 28
10100 12621 12625 28
10101 12626 12627 28
10102 12626 12628 28
10103 12626 12629 28
10104 12626 12630 28
10105 12631 12632 28
10106 12631 12633 28
10107 12631 12634 28
10108 12631 12635 28
10109 12636 12637 28
10110 12636 12638 28
10111 12636 12639 28
10112 12636 12640 28
10113 12641 12642 28
10114 12641 12643 28
10115 12641 12644 28
10116 12641 12645 28
10117 12646 12647 28
10118 12646 12648 28
10119 12646 12649 28
10120 12646 12650 28
10121 12651 12652 28
10122 12651 12653 28
10123 12651 12654 28
10124 12651 12655 28
10125 12656 12657 28
10126 12656 12658 28
10127 12656 12659 28
10128 12656 12660 28
10129 12661 12662 28
10130 12661 12663 28
10131 12661 12664 28
10132 12661 12665 28
10133 12666 12667 28
10134 12666 12668 28
10135 12666 12669 28
10136 12666 12670 28
10137 12671 12672 28
10138 12671 12673 28
10139 12671 12674 28
10140 12671 12675 28
10141 12676 12677 28
10142 12676 12678 28
10143 12676 12679 28
10144 12676 12680 28
10145 12681 12682 28
10146 12681 12683 28
10147 12681 12684 28
10148 12681 12685 28
10149 12686 12687 28
10150 12686 12688 28
10151 12686 12689 28
10152 12686 12690 28
10153 12691 12692 28
10154 12691 12693 28
10155 12691 12694 28
10156 12691 12695 28
10157 12696 12697 28
10158 12696 12698 28
10159 12696 12699 28
10160 12696 12700 28
10161 12701 12702 28
10162 12701 12703 28
10163 12701 12704 28
10164 12701 12705 28
10165 12706 12707 28
10166 12706 12708 28
10167 12706 12709 28
10168 12706 12710 28
10169 12711 12712 28
10170 12711 12713 28
10171 12711 12714 28
10172 12711 12715 28
10173 12716 12717 28
10174 12716 12718 28
10175 12716 12719 28
10176 12716 12720 28
10177 12721 12722 28
10178 12721 12723 28
10179 12721 12724 28
10180 12721 12725 28
10181 12726 12727 28
10182 12726 12728 28
10183 12726 12729 28
10184 12726 12730 28
10185 12731 12732 28
10186 12731 12733 28
10187 12731 12734 28
10188 12731 12735 28
10189 12736 12737 28
10190 12736 12738 28
10191 12736 12739 28
10192 12736 12740 28
10193 12741 12742 28
10194 12741 12743 28
10195 12741 12744 28
10196 12741 12745 28
10197 12746 12747 28
10198 12746 12748 28
10199 12746 12749 28
10200 12746 12750 28
10201 12751 12752 28
10202 12751 12753 28
10203 12751 12754 28
10204 12751 12755 28
10205 12756 12757 28
10206 12756 12758 28
10207 12756 12759 28
10208 12756 12760 28
10209 12761 12762 28
10210 12761 12763 28
10211 12761 12764 28
10212 12761 12765 28
10213 12766 12767 28
10214 12766 12768 28
10215 12766 12769 28
10216 12766 12770 28
10217 12771 12772 28
10218 12771 12773 28
10219 12771 12774 28
10220 12771 12775 28
10221 12776 12777 28
10222 12776 12778 28
10223 12776 12779 28
10224 12776 12780 28
10225 12781 12782 28
10226 12781 12783 28
10227 12781 12784 28
10228 12781 12785 28
10229 12786 12787 28
10230 12786 12788 28
10231 12786 12789 28
10232 12786 12790 28
10233 12791 12792 28
10234 12791 12793 28
10235 12791 12794 28
10236 12791 12795 28
10237 12796 12797 28
10238 12796 12798 28
10239 12796 12799 28
10240 12796 12800 28
10241 12801 12802 28
10242 12801 12803 28
10243 12801 12804 28
10244 12801 12805 28
10245 12806 12807 28
10246 12806 12808 28
10247 12806 12809 28
10248 12806 12810 28
10249 12811 12812 28
10250 12811 12813 28
10251 12811 12814 28
10252 12811 12815 28
10253 12816 12817 28
10254 12816 12818 28
10255 12816 12819 28
10256 12816 12820 28
10257 12821 12822 28
10258 12821 12823 28
10259 12821 12824 28
10260 12821 12825 28
10261 12826 12827 28
10262 12826 12828 28
10263 12826 12829 28
10264 12826 12830 28
10265 12831 12832 28
10266 12831 12833 28
10267 12831 12834 28
10268 12831 12835 28
10269 12836 12837 28
10270 12836 12838 28
10271 12836 12839 28
10272 12836 12840 28
10273 12841 12842 28
10274 12841 12843 28
10275 12841 12844 28
10276 12841 12845 28
10277 12846 12847 28
10278 12846 12848 28
10279 12846 12849 28
10280 12846 12850 28
10281 12851 12852 28
10282 12851 12853 28
10283 12851 12854 28
10284 12851 12855 28
10285 12856 12857 28
10286 12856 12858 28
10287 12856 12859 28
10288 12856 12860 28
10289 12861 12862 28
10290 12861 12863 28
10291 12861 12864 28
10292 12861 12865 28
10293 12866 12867 28
10294 12866 12868 28
10295 12866 12869 28
10296 12866 12870 28
10297 12871 12872 28
10298 12871 12873 28
10299 12871 12874 28
10300 12871 12875 28
10301 12876 12877 28
10302 12876 12878 28
10303 12876 12879 28
10304 12876 12880 28
10305 12881 12882 28
10306 12881 12883 28
10307 12881 12884 28
10308 12881 12885 28
10309 12886 12887 28
10310 12886 12888 28
10311 12886 12889 28
10312 12886 12890 28
10313 12891 12892 28
10314 12891 12893 28
10315 12891 12894 28
10316 12891 12895 28
10317 12896 12897 28
10318 12896 12898 28
10319 12896 12899 28
10320 12896 12900 28
10321 12901 12902 28
10322 12901 12903 28
10323 12901 12904 28
10324 12901 12905 28
10325 12906 12907 28
10326 12906 12908 28
10327 12906 12909 28
10328 12906 12910 28
10329 12911 12912 28
10330 12911 12913 28
10331 12911 12914 28
10332 12911 12915 28
10333 12916 12917 28
10334 12916 12918 28
10335 12916 12919 28
10336 12916 12920 28
10337 12921 12922 28
10338 12921 12923 28
10339 12921 12924 28
10340 12921 12925 28
10341 12926 12927 28
10342 12926 12928 28
10343 12926 12929 28
10344 12926 12930 28
10345 12931 12932 28
10346 12931 12933 28
10347 12931 12934 28
10348 12931 12935 28
10349 12936 12937 28
10350 12936 12938 28
10351 12936 12939 28
10352 12936 12940 28
10353 12941 12942 28
10354 12941 12943 28
10355 12941 12944 28
10356 12941 12945 28
10357 12946 12947 28
10358 12946 12948 28
10359 12946 12949 28
10360 12946 12950 28
10361 12951 12952 28
10362 12951 12953 28
10363 12951 12954 28
10364 12951 12955 28
10365 12956 12957 28
10366 12956 12958 28
10367 12956 12959 28
10368 12956 12960 28
10369 12961 12962 28
10370 12961 12963 28
10371 12961 12964 28
10372 12961 12965 28
10373 12966 12967 28
10374 12966 12968 28
10375 12966 12969 28
10376 12966 12970 28
10377 12971 12972 28
10378 12971 12973 28
10379 12971 12974 28
10380 12971 12975 28
10381 12976 12977 28
10382 12976 12978 28
10383 12976 12979 28
10384 12976 12980 28
10385 12981 12982 28
10386 12981 12983 28
10387 12981 12984 28
10388 12981 12985 28
10389 12986 12987 28
10390 12986 12988 28
10391 12986 12989 28
10392 12986 12990 28
10393 12991 12992 28
10394 12991 12993 28
10395 12991 12994 28
10396 12991 12995 28
10397 12996 12997 28
10398 12996 12998 28
10399 12996 12999 28
10400 12996 13000 28
10401 13001 13002 28
10402 13001 13003 28
10403 13001 13004 28
10404 13001 13005 28
10405 13006 13007 28
10406 13006 13008 28
10407 13006 13009 28
10408 13006 13010 28
10409 13011 13012 28
10410 13011 13013 28
10411 13011 13014 28
10412 13011 13015 28
10413 13016 13017 28
10414 13016 13018 28
10415 13016 13019 28
10416 13016 13020 28
10417 13021 13022 28
10418 13021 13023 28
10419 13021 13024 28
10420 13021 13025 28
10421 13026 13027 28
10422 13026 13028 28
10423 13026 13029 28
10424 13026 13030 28
10425 13031 13032 28
10426 13031 13033 28
10427 13031 13034 28
10428 13031 13035 28
10429 13036 13037 28
10430 13036 13038 28
10431 13036 13039 28
10432 13036 13040 28
10433 13041 13042 28
10434 13041 13043 28
10435 13041 13044 28
10436 13041 13045 28
10437 13046 13047 28
10438 13046 13048 28
10439 13046 13049 28
10440 13046 13050 28
10441 13051 13052 28
10442 13051 13053 28
10443 13051 13054 28
10444 13051 13055 28
10445 13056 13057 28
10446 13056 13058 28
10447 13056 13059 28
10448 13056 13060 28
10449 13061 13062 28
10450 13061 13063 28
10451 13061 13064 28
10452 13061 13065 28
10453 13066 13067 28
10454 13066 13068 28
10455 13066 13069 28
10456 13066 13070 28
10457 13071 13072 28
10458 13071 13073 28
10459 13071 13074 28
10460 13071 13075 28
10461 13076 13077 28
10462 13076 13078 28
10463 13076 13079 28
10464 13076 13080 28
10465 13081 13082 28
10466 13081 13083 28
10467 13081 13084 28
10468 13081 13085 28
10469 13086 13087 28
10470 13086 13088 28
10471 13086 13089 28
10472 13086 13090 28
10473 13091 13092 28
10474 13091 13093 28
10475 13091 13094 28
10476 13091 13095 28
10477 13096 13097 28
10478 13096 13098 28
10479 13096 13099 28
10480 13096 13100 28
10481 13101 13102 28
10482 13101 13103 28
10483 13101 13104 28
10484 13101 13105 28
10485 13106 13107 28
10486 13106 13108 28
10487 13106 13109 28
10488 13106 13110 28
10489 13111 13112 28
10490 13111 13113 28
10491 13111 13114 28
10492 13111 13115 28
10493 13116 13117 28
10494 13116 13118 28
10495 13116 13119 28
10496 13116 13120 28
10497 13121 13122 28
10498 13121 13123 28
10499 13121 13124 28
10500 13121 13125 28
10501 13126 13127 28
10502 13126 13128 28
10503 13126 13129 28
10504 13126 13130 28
10505 13131 13132 28
10506 13131 13133 28
10507 13131 13134 28
10508 13131 13135 28
10509 13136 13137 28
10510 13136 13138 28
10511 13136 13139 28
10512 13136 13140 28
10513 13141 13142 28
10514 13141 13143 28
10515 13141 13144 28
10516 13141 13145 28
10517 13146 13147 28
10518 13146 13148 28
10519 13146 13149 28
10520 13146 13150 28
10521 13151 13152 28
10522 13151 13153 28
10523 13151 13154 28
10524 13151 13155 28
10525 13156 13157 28
10526 13156 13158 28
10527 13156 13159 28
10528 13156 13160 28
10529 13161 13162 28
10530 13161 13163 28
10531 13161 13164 28
10532 13161 13165 28
10533 13166 13167 28
10534 13166 13168 28
10535 13166 13169 28
10536 13166 13170 28
10537 13171 13172 28
10538 13171 13173 28
10539 13171 13174 28
10540 13171 13175 28
10541 13176 13177 28
10542 13176 13178 28
10543 13176 13179 28
10544 13176 13180 28
10545 13181 13182 28
10546 13181 13183 28
10547 13181 13184 28
10548 13181 13185 28
10549 13186 13187 28
10550 13186 13188 28
10551 13186 13189 28
10552 13186 13190 28
10553 13191 13192 28
10554 13191 13193 28
10555 13191 13194 28
10556 13191 13195 28
10557 13196 13197 28
10558 13196 13198 28
10559 13196 13199 28
10560 13196 13200 28
10561 13201 13202 28
10562 13201 13203 28
10563 13201 13204 28
10564 13201 13205 28
10565 13206 13207 28
10566 13206 13208 28
10567 13206 13209 28
10568 13206 13210 28
10569 13211 13212 28
10570 13211 13213 28
10571 13211 13214 28
10572 13211 13215 28
10573 13216 13217 28
10574 13216 13218 28
10575 13216 13219 28
10576 13216 13220 28
10577 13221 13222 28
10578 13221 13223 28
10579 13221 13224 28
10580 13221 13225 28
10581 13226 13227 28
10582 13226 13228 28
10583 13226 13229 28
10584 13226 13230 28
10585 13231 13232 28
10586 13231 13233 28
10587 13231 13234 28
10588 13231 13235 28
10589 13236 13237 28
10590 13236 13238 28
10591 13236 13239 28
10592 13236 13240 28
10593 13241 13242 28
10594 13241 13243 28
10595 13241 13244 28
10596 13241 13245 28
10597 13246 13247 28
10598 13246 13248 28
10599 13246 13249 28
10600 13246 13250 28
10601 13251 13252 28
10602 13251 13253 28
10603 13251 13254 28
10604 13251 13255 28
10605 13256 13257 28
10606 13256 13258 28
10607 13256 13259 28
10608 13256 13260 28
10609 13261 13262 28
10610 13261 13263 28
10611 13261 13264 28
10612 13261 13265 28
10613 13266 13267 28
10614 13266 13268 28
10615 13266 13269 28
10616 13266 13270 28
10617 13271 13272 28
10618 13271 13273 28
10619 13271 13274 28
10620 13271 13275 28
10621 13276 13277 28
10622 13276 13278 28
10623 13276 13279 28
10624 13276 13280 28
10625 13281 13282 28
10626 13281 13283 28
10627 13281 13284 28
10628 13281 13285 28
10629 13286 13287 28
10630 13286 13288 28
10631 13286 13289 28
10632 13286 13290 28
10633 13291 13292 28
10634 13291 13293 28
10635 13291 13294 28
10636 13291 13295 28
10637 13296 13297 28
10638 13296 13298 28
10639 13296 13299 28
10640 13296 13300 28
10641 13301 13302 28
10642 13301 13303 28
10643 13301 13304 28
10644 13301 13305 28
10645 13306 13307 28
10646 13306 13308 28
10647 13306 13309 28
10648 13306 13310 28
10649 13311 13312 28
10650 13311 13313 28
10651 13311 13314 28
10652 13311 13315 28
10653 13316 13317 28
10654 13316 13318 28
10655 13316 13319 28
10656 13316 13320 28
10657 13321 13322 28
10658 13321 13323 28
10659 13321 13324 28
10660 13321 13325 28
10661 13326 13327 28
10662 13326 13328 28
10663 13326 13329 28
10664 13326 13330 28
10665 13331 13332 28
10666 13331 13333 28
10667 13331 13334 28
10668 13331 13335 28
10669 13336 13337 28
10670 13336 13338 28
10671 13336 13339 28
10672 13336 13340 28
10673 13341 13342 28
10674 13341 13343 28
10675 13341 13344 28
10676 13341 13345 28
10677 13346 13347 28
10678 13346 13348 28
10679 13346 13349 28
10680 13346 13350 28
10681 13351 13352 28
10682 13351 13353 28
10683 13351 13354 28
10684 13351 13355 28
10685 13356 13357 28
10686 13356 13358 28
10687 13356 13359 28
10688 13356 13360 28
10689 13361 13362 28
10690 13361 13363 28
10691 13361 13364 28
10692 13361 13365 28
10693 13366 13367 28
10694 13366 13368 28
10695 13366 13369 28
10696 13366 13370 28
10697 13371 13372 28
10698 13371 13373 28
10699 13371 13374 28
10700 13371 13375 28
10701 13376 13377 28
10702 13376 13378 28
10703 13376 13379 28
10704 13376 13380 28
10705 13381 13382 28
10706 13381 13383 28
10707 13381 13384 28
10708 13381 13385 28
10709 13386 13387 28
10710 13386 13388 28
10711 13386 13389 28
10712 13386 13390 28
10713 13391 13392 28
10714 13391 13393 28
10715 13391 13394 28
10716 13391 13395 28
10717 13396 13397 28
10718 13396 13398 28
10719 13396 13399 28
10720 13396 13400 28
10721 13401 13402 28
10722 13401 13403 28
10723 13401 13404 28
10724 13401 13405 28
10725 13406 13407 28
10726 13406 13408 28
10727 13406 13409 28
10728 13406 13410 28
10729 13411 13412 28
10730 13411 13413 28
10731 13411 13414 28
10732 13411 13415 28
10733 13416 13417 28
10734 13416 13418 28
10735 13416 13419 28
10736 13416 13420 28
10737 13421 13422 28
10738 13421 13423 28
10739 13421 13424 28
10740 13421 13425 28
10741 13426 13427 28
10742 13426 13428 28
10743 13426 13429 28
10744 13426 13430 28
10745 13431 13432 28
10746 13431 13433 28
10747 13431 13434 28
10748 13431 13435 28
10749 13436 13437 28
10750 13436 13438 28
10751 13436 13439 28
10752 13436 13440 28
10753 13441 13442 28
10754 13441 13443 28
10755 13441 13444 28
10756 13441 13445 28
10757 13446 13447 28
10758 13446 13448 28
10759 13446 13449 28
10760 13446 13450 28
10761 13451 13452 28
10762 13451 13453 28
10763 13451 13454 28
10764 13451 13455 28
10765 13456 13457 28
10766 13456 13458 28
10767 13456 13459 28
10768 13456 13460 28
10769 13461 13462 28
10770 13461 13463 28
10771 13461 13464 28
10772 13461 13465 28
10773 13466 13467 28
10774 13466 13468 28
10775 13466 13469 28
10776 13466 13470 28
10777 13471 13472 28
10778 13471 13473 28
10779 13471 13474 28
10780 13471 13475 28
10781 13476 13477 28
10782 13476 13478 28
10783 13476 13479 28
10784 13476 13480 28
10785 13481 13482 28
10786 13481 13483 28
10787 13481 13484 28
10788 13481 13485 28
10789 13486 13487 28
10790 13486 13488 28
10791 13486 13489 28
10792 13486 13490 28
10793 13491 13492 28
10794 13491 13493 28
10795 13491 13494 28
10796 13491 13495 28
10797 13496 13497 28
10798 13496 13498 28
10799 13496 13499 28
10800 13496 13500 28
10801 13501 13502 28
10802 13501 13503 28
10803 13501 13504 28
10804 13501 13505 28
10805 13506 13507 28
10806 13506 13508 28
10807 13506 13509 28
10808 13506 13510 28
10809 13511 13512 28
10810 13511 13513 28
10811 13511 13514 28
10812 13511 13515 28
10813 13516 13517 28
10814 13516 13518 28
10815 13516 13519 28
10816 13516 13520 28
10817 13521 13522 28
10818 13521 13523 28
10819 13521 13524 28
10820 13521 13525 28
10821 13526 13527 28
10822 13526 13528 28
10823 13526 13529 28
10824 13526 13530 28
10825 13531 13532 28
10826 13531 13533 28
10827 13531 13534 28
10828 13531 13535 28
10829 13536 13537 28
10830 13536 13538 28
10831 13536 13539 28
10832 13536 13540 28
10833 13541 13542 28
10834 13541 13543 28
10835 13541 13544 28
10836 13541 13545 28
10837 13546 13547 28
10838 13546 13548 28
10839 13546 13549 28
10840 13546 13550 28
10841 13551 13552 28
10842 13551 13553 28
10843 13551 13554 28
10844 13551 13555 28
10845 13556 13557 28
10846 13556 13558 28
10847 13556 13559 28
10848 13556 13560 28
10849 13561 13562 28
10850 13561 13563 28
10851 13561 13564 28
10852 13561 13565 28
10853 13566 13567 28
10854 13566 13568 28
10855 13566 13569 28
10856 13566 13570 28
10857 13571 13572 28
10858 13571 13573 28
10859 13571 13574 28
10860 13571 13575 28
10861 13576 13577 28
10862 13576 13578 28
10863 13576 13579 28
10864 13576 13580 28
10865 13581 13582 28
10866 13581 13583 28
10867 13581 13584 28
10868 13581 13585 28
10869 13586 13587 28
10870 13586 13588 28
10871 13586 13589 28
10872 13586 13590 28
10873 13591 13592 28
10874 13591 13593 28
10875 13591 13594 28
10876 13591 13595 28
10877 13596 13597 28
10878 13596 13598 28
10879 13596 13599 28
10880 13596 13600 28
10881 13601 13602 28
10882 13601 13603 28
10883 13601 13604 28
10884 13601 13605 28
10885 13606 13607 28
10886 13606 13608 28
10887 13606 13609 28
10888 13606 13610 28
10889 13611 13612 28
10890 13611 13613 28
10891 13611 13614 28
10892 13611 13615 28
10893 13616 13617 28
10894 13616 13618 28
10895 13616 13619 28
10896 13616 13620 28
10897 13621 13622 28
10898 13621 13623 28
10899 13621 13624 28
10900 13621 13625 28
10901 13626 13627 28
10902 13626 13628 28
10903 13626 13629 28
10904 13626 13630 28
10905 13631 13632 28
10906 13631 13633 28
10907 13631 13634 28
10908 13631 13635 28
10909 13636 13637 28
10910 13636 13638 28
10911 13636 13639 28
10912 13636 13640 28
10913 13641 13642 28
10914 13641 13643 28
10915 13641 13644 28
10916 13641 13645 28
10917 13646 13647 28
10918 13646 13648 28
10919 13646 13649 28
10920 13646 13650 28
10921 13651 13652 28
10922 13651 13653 28
10923 13651 13654 28
10924 13651 13655 28
10925 13656 13657 28
10926 13656 13658 28
10927 13656 13659 28
10928 13656 13660 28
10929 13661 13662 28
10930 13661 13663 28
10931 13661 13664 28
10932 13661 13665 28
10933 13666 13667 28
10934 13666 13668 28
10935 13666 13669 28
10936 13666 13670 28
10937 13671 13672 28
10938 13671 13673 28
10939 13671 13674 28
10940 13671 13675 28
10941 13676 13677 28
10942 13676 13678 28
10943 13676 13679 28
10944 13676 13680 28
10945 13681 13682 28
10946 13681 13683 28
10947 13681 13684 28
10948 13681 13685 28
10949 13686 13687 28
10950 13686 13688 28
10951 13686 13689 28
10952 13686 13690 28
10953 13691 13692 28
10954 13691 13693 28
10955 13691 13694 28
10956 13691 13695 28
10957 13696 13697 28
10958 13696 13698 28
10959 13696 13699 28
10960 13696 13700 28
10961 13701 13702 28
10962 13701 13703 28
10963 13701 13704 28
10964 13701 13705 28
10965 13706 13707 28
10966 13706 13708 28
10967 13706 13709 28
10968 13706 13710 28
10969 13711 13712 28
10970 13711 13713 28
10971 13711 13714 28
10972 13711 13715 28
10973 13716 13717 28
10974 13716 13718 28
10975 13716 13719 28
10976 13716 13720 28
10977 13721 13722 28
10978 13721 13723 28
10979 13721 13724 28
10980 13721 13725 28
10981 13726 13727 28
10982 13726 13728 28
10983 13726 13729 28
10984 13726 13730 28
10985 13731 13732 28
10986 13731 13733 28
10987 13731 13734 28
10988 13731 13735 28
10989 13736 13737 28
10990 13736 13738 28
10991 13736 13739 28
10992 13736 13740 28
10993 13741 13742 28
10994 13741 13743 28
10995 13741 13744 28
10996 13741 13745 28
10997 13746 13747 28
10998 13746 13748 28
10999 13746 13749 28
11000 13746 13750 28
11001 13751 13752 28
11002 13751 13753 28
11003 13751 13754 28
11004 13751 13755 28
11005 13756 13757 28
11006 13756 13758 28
11007 13756 13759 28
11008 13756 13760 28
11009 13761 13762 28
11010 13761 13763 28
11011 13761 13764 28
11012 13761 13765 28
11013 13766 13767 28
11014 13766 13768 28
11015 13766 13769 28
11016 13766 13770 28
11017 13771 13772 28
11018 13771 13773 28
11019 13771 13774 28
11020 13771 13775 28
11021 13776 13777 28
11022 13776 13778 28
11023 13776 13779 28
11024 13776 13780 28
11025 13781 13782 28
11026 13781 13783 28
11027 13781 13784 28
11028 13781 13785 28
11029 13786 13787 28
11030 13786 13788 28
11031 13786 13789 28
11032 13786 13790 28
11033 13791 13792 28
11034 13791 13793 28
11035 13791 13794 28
11036 13791 13795 28
11037 13796 13797 28
11038 13796 13798 28
11039 13796 13799 28
11040 13796 13800 28
11041 13801 13802 28
11042 13801 13803 28
11043 13801 13804 28
11044 13801 13805 28
11045 13806 13807 28
11046 13806 13808 28
11047 13806 13809 28
11048 13806 13810 28
11049 13811 13812 28
11050 13811 13813 28
11051 13811 13814 28
11052 13811 13815 28
11053 13816 13817 28
11054 13816 13818 28
11055 13816 13819 28
11056 13816 13820 28
11057 13821 13822 28
11058 13821 13823 28
11059 13821 13824 28
11060 13821 13825 28
11061 13826 13827 28
11062 13826 13828 28
11063 13826 13829 28
11064 13826 13830 28
11065 13831 13832 28
11066 13831 13833 28
11067 13831 13834 28
11068 13831 13835 28
11069 13836 13837 28
11070 13836 13838 28
11071 13836 13839 28
11072 13836 13840 28
11073 13841 13842 28
11074 13841 13843 28
11075 13841 13844 28
11076 13841 13845 28
11077 13846 13847 28
11078 13846 13848 28
11079 13846 13849 28
11080 13846 13850 28
11081 13851 13852 28
11082 13851 13853 28
11083 13851 13854 28
11084 13851 13855 28
11085 13856 13857 28
11086 13856 13858 28
11087 13856 13859 28
11088 13856 13860 28
11089 13861 13862 28
11090 13861 13863 28
11091 13861 13864 28
11092 13861 13865 28
11093 13866 13867 28
11094 13866 13868 28
11095 13866 13869 28
11096 13866 13870 28
11097 13871 13872 28
11098 13871 13873 28
11099 13871 13874 28
11100 13871 13875 28
11101 13876 13877 28
11102 13876 13878 28
11103 13876 13879 28
11104 13876 13880 28
11105 13881 13882 28
11106 13881 13883 28
11107 13881 13884 28
11108 13881 13885 28
11109 13886 13887 28
11110 13886 13888 28
11111 13886 13889 28
11112 13886 13890 28
11113 13891 13892 28
11114 13891 13893 28
11115 13891 13894 28
11116 13891 13895 28
11117 13896 13897 28
11118 13896 13898 28
11119 13896 13899 28
11120 13896 13900 28
11121 13901 13902 28
11122 13901 13903 28
11123 13901 13904 28
11124 13901 13905 28
11125 13906 13907 28
11126 13906 13908 28
11127 13906 13909 28
11128 13906 13910 28
11129 13911 13912 28
11130 13911 13913 28
11131 13911 13914 28
11132 13911 13915 28
11133 13916 13917 28
11134 13916 13918 28
11135 13916 13919 28
11136 13916 13920 28
11137 13921 13922 28
11138 13921 13923 28
11139 13921 13924 28
11140 13921 13925 28
11141 13926 13927 28
11142 13926 13928 28
11143 13926 13929 28
11144 13926 13930 28
11145 13931 13932 28
11146 13931 13933 28
11147 13931 13934 28
11148 13931 13935 28
11149 13936 13937 28
11150 13936 13938 28
11151 13936 13939 28
11152 13936 13940 28
11153 13941 13942 28
11154 13941 13943 28
11155 13941 13944 28
11156 13941 13945 28
11157 13946 13947 28
11158 13946 13948 28
11159 13946 13949 28
11160 13946 13950 28
11161 13951 13952 28
11162 13951 13953 28
11163 13951 13954 28
11164 13951 13955 28
11165 13956 13957 28
11166 13956 13958 28
11167 13956 13959 28
11168 13956 13960 28
11169 13961 13962 28
11170 13961 13963 28
11171 13961 13964 28
11172 13961 13965 28
11173 13966 13967 28
11174 13966 13968 28
11175 13966 13969 28
11176 13966 13970 28
11177 13971 13972 28
11178 13971 13973 28
11179 13971 13974 28
11180 13971 13975 28
11181 13976 13977 28
11182 13976 13978 28
11183 13976 13979 28
11184 13976 13980 28
11185 13981 13982 28
11186 13981 13983 28
11187 13981 13984 28
11188 13981 13985 28
11189 13986 13987 28
11190 13986 13988 28
11191 13986 13989 28
11192 13986 13990 28
11193 13991 13992 28
11194 13991 13993 28
11195 13991 13994 28
11196 13991 13995 28
11197 13996 13997 28
11198 13996 13998 28
11199 13996 13999 28
11200 13996 14000 28
11201 14001 14002 28
11202 14001 14003 28
11203 14001 14004 28
11204 14001 14005 28
11205 14006 14007 28
11206 14006 14008 28
11207 14006 14009 28
11208 14006 14010 28
11209 14011 14012 28
11210 14011 14013 28
11211 14011 14014 28
11212 14011 14015 28
11213 14016 14017 28
11214 14016 14018 28
11215 14016 14019 28
11216 14016 14020 28
11217 14021 14022 28
11218 14021 14023 28
11219 14021 14024 28
11220 14021 14025 28
11221 14026 14027 28
11222 14026 14028 28
11223 14026 14029 28
11224 14026 14030 28
11225 14031 14032 28
11226 14031 14033 28
11227 14031 14034 28
11228 14031 14035 28
11229 14036 14037 28
11230 14036 14038 28
11231 14036 14039 28
11232 14036 14040 28
11233 14041 14042 28
11234 14041 14043 28
11235 14041 14044 28
11236 14041 14045 28
11237 14046 14047 28
11238 14046 14048 28
11239 14046 14049 28
11240 14046 14050 28
11241 14051 14052 28
11242 14051 14053 28
11243 14051 14054 28
11244 14051 14055 28
11245 14056 14057 28
11246 14056 14058 28
11247 14056 14059 28
11248 14056 14060 28
11249 14061 14062 28
11250 14061 14063 28
11251 14061 14064 28
11252 14061 14065 28
11253 14066 14067 28
11254 14066 14068 28
11255 14066 14069 28
11256 14066 14070 28
11257 14071 14072 28
11258 14071 14073 28
11259 14071 14074 28
11260 14071 14075 28
11261 14076 14077 28
11262 14076 14078 28
11263 14076 14079 28
11264 14076 14080 28
11265 14081 14082 28
11266 14081 14083 28
11267 14081 14084 28
11268 14081 14085 28
11269 14086 14087 28
11270 14086 14088 28
11271 14086 14089 28
11272 14086 14090 28
11273 14091 14092 28
11274 14091 14093 28
11275 14091 14094 28
11276 14091 14095 28
11277 14096 14097 28
11278 14096 14098 28
11279 14096 14099 28
11280 14096 14100 28
11281 14101 14102 28
11282 14101 14103 28
11283 14101 14104 28
11284 14101 14105 28
11285 14106 14107 28
11286 14106 14108 28
11287 14106 14109 28
11288 14106 14110 28
11289 14111 14112 28
11290 14111 14113 28
11291 14111 14114 28
11292 14111 14115 28
11293 14116 14117 28
11294 14116 14118 28
11295 14116 14119 28
11296 14116 14120 28
11297 14121 14122 28
11298 14121 14123 28
11299 14121 14124 28
11300 14121 14125 28
11301 14126 14127 28
11302 14126 14128 28
11303 14126 14129 28
11304 14126 14130 28
11305 14131 14132 28
11306 14131 14133 28
11307 14131 14134 28
11308 14131 14135 28
11309 14136 14137 28
11310 14136 14138 28
11311 14136 14139 28
11312 14136 14140 28
11313 14141 14142 28
11314 14141 14143 28
11315 14141 14144 28
11316 14141 14145 28
11317 14146 14147 28
11318 14146 14148 28
11319 14146 14149 28
11320 14146 14150 28
11321 14151 14152 28
11322 14151 14153 28
11323 14151 14154 28
11324 14151 14155 28
11325 14156 14157 28
11326 14156 14158 28
11327 14156 14159 28
11328 14156 14160 28
11329 14161 14162 28
11330 14161 14163 28
11331 14161 14164 28
11332 14161 14165 28
11333 14166 14167 28
11334 14166 14168 28
11335 14166 14169 28
11336 14166 14170 28
11337 14171 14172 28
11338 14171 14173 28
11339 14171 14174 28
11340 14171 14175 28
11341 14176 14177 28
11342 14176 14178 28
11343 14176 14179 28
11344 14176 14180 28
11345 14181 14182 28
11346 14181 14183 28
11347 14181 14184 28
11348 14181 14185 28
11349 14186 14187 28
11350 14186 14188 28
11351 14186 14189 28
11352 14186 14190 28
11353 14191 14192 28
11354 14191 14193 28
11355 14191 14194 28
11356 14191 14195 28
11357 14196 14197 28
11358 14196 14198 28
11359 14196 14199 28
11360 14196 14200 28
11361 14201 14202 28
11362 14201 14203 28
11363 14201 14204 28
11364 14201 14205 28
11365 14206 14207 28
11366 14206 14208 28
11367 14206 14209 28
11368 14206 14210 28
11369 14211 14212 28
11370 14211 14213 28
11371 14211 14214 28
11372 14211 14215 28
11373 14216 14217 28
11374 14216 14218 28
11375 14216 14219 28
11376 14216 14220 28
11377 14221 14222 28
11378 14221 14223 28
11379 14221 14224 28
11380 14221 14225 28
11381 14226 14227 28
11382 14226 14228 28
11383 14226 14229 28
11384 14226 14230 28
11385 14231 14232 28
11386 14231 14233 28
11387 14231 14234 28
11388 14231 14235 28
11389 14236 14237 28
11390 14236 14238 28
11391 14236 14239 28
11392 14236 14240 28
11393 14241 14242 28
11394 14241 14243 28
11395 14241 14244 28
11396 14241 14245 28
11397 14246 14247 28
11398 14246 14248 28
11399 14246 14249 28
11400 14246 14250 28
11401 14251 14252 28
11402 14251 14253 28
11403 14251 14254 28
11404 14251 14255 28
11405 14256 14257 28
11406 14256 14258 28
11407 14256 14259 28
11408 14256 14260 28
11409 14261 14262 28
11410 14261 14263 28
11411 14261 14264 28
11412 14261 14265 28
11413 14266 14267 28
11414 14266 14268 28
11415 14266 14269 28
11416 14266 14270 28
11417 14271 14272 28
11418 14271 14273 28
11419 14271 14274 28
11420 14271 14275 28
11421 14276 14277 28
11422 14276 14278 28
11423 14276 14279 28
11424 14276 14280 28
11425 14281 14282 28
11426 14281 14283 28
11427 14281 14284 28
11428 14281 14285 28
11429 14286 14287 28
11430 14286 14288 28
11431 14286 14289 28
11432 14286 14290 28
11433 14291 14292 28
11434 14291 14293 28
11435 14291 14294 28
11436 14291 14295 28
11437 14296 14297 28
11438 14296 14298 28
11439 14296 14299 28
11440 14296 14300 28
11441 14301 14302 28
11442 14301 14303 28
11443 14301 14304 28
11444 14301 14305 28
11445 14306 14307 28
11446 14306 14308 28
11447 14306 14309 28
11448 14306 14310 28
11449 14311 14312 28
11450 14311 14313 28
11451 14311 14314 28
11452 14311 14315 28
11453 14316 14317 28
11454 14316 14318 28
11455 14316 14319 28
11456 14316 14320 28
11457 14321 14322 28
11458 14321 14323 28
11459 14321 14324 28
11460 14321 14325 28
11461 14326 14327 28
11462 14326 14328 28
11463 14326 14329 28
11464 14326 14330 28
11465 14331 14332 28
11466 14331 14333 28
11467 14331 14334 28
11468 14331 14335 28
11469 14336 14337 28
11470 14336 14338 28
11471 14336 14339 28
11472 14336 14340 28
11473 14341 14342 28
11474 14341 14343 28
11475 14341 14344 28
11476 14341 14345 28
11477 14346 14347 28
11478 14346 14348 28
11479 14346 14349 28
11480 14346 14350 28
11481 14351 14352 28
11482 14351 14353 28
11483 14351 14354 28
11484 14351 14355 28
11485 14356 14357 28
11486 14356 14358 28
11487 14356 14359 28
11488 14356 14360 28
11489 14361 14362 28
11490 14361 14363 28
11491 14361 14364 28
11492 14361 14365 28
11493 14366 14367 28
11494 14366 14368 28
11495 14366 14369 28
11496 14366 14370 28
11497 14371 14372 28
11498 14371 14373 28
11499 14371 14374 28
11500 14371 14375 28
11501 14376 14377 28
11502 14376 14378 28
11503 14376 14379 28
11504 14376 14380 28
11505 14381 14382 28
11506 14381 14383 28
11507 14381 14384 28
11508 14381 14385 28
11509 14386 14387 28
11510 14386 14388 28
11511 14386 14389 28
11512 14386 14390 28
11513 14391 14392 28
11514 14391 14393 28
11515 14391 14394 28
11516 14391 14395 28
11517 14396 14397 28
11518 14396 14398 28
11519 14396 14399 28
11520 14396 14400 28
11521 14401 14402 28
11522 14401 14403 28
11523 14401 14404 28
11524 14401 14405 28
11525 14406 14407 28
11526 14406 14408 28
11527 14406 14409 28
11528 14406 14410 28
11529 14411 14412 28
11530 14411 14413 28
11531 14411 14414 28
11532 14411 14415 28
11533 14416 14417 28
11534 14416 14418 28
11535 14416 14419 28
11536 14416 14420 28
11537 14421 14422 28
11538 14421 14423 28
11539 14421 14424 28
11540 14421 14425 28
11541 14426 14427 28
11542 14426 14428 28
11543 14426 14429 28
11544 14426 14430 28
11545 14431 14432 28
11546 14431 14433 28
11547 14431 14434 28
11548 14431 14435 28
11549 14436 14437 28
11550 14436 14438 28
11551 14436 14439 28
11552 14436 14440 28
11553 14441 14442 28
11554 14441 14443 28
11555 14441 14444 28
11556 14441 14445 28
11557 14446 14447 28
11558 14446 14448 28
11559 14446 14449 28
11560 14446 14450 28
11561 14451 14452 28
11562 14451 14453 28
11563 14451 14454 28
11564 14451 14455 28
11565 14456 14457 28
11566 14456 14458 28
11567 14456 14459 28
11568 14456 14460 28
11569 14461 14462 28
11570 14461 14463 28
11571 14461 14464 28
11572 14461 14465 28
11573 14466 14467 28
11574 14466 14468 28
11575 14466 14469 28
11576 14466 14470 28
11577 14471 14472 28
11578 14471 14473 28
11579 14471 14474 28
11580 14471 14475 28
11581 14476 14477 28
11582 14476 14478 28
11583 14476 14479 28
11584 14476 14480 28
11585 14481 14482 28
11586 14481 14483 28
11587 14481 14484 28
11588 14481 14485 28
11589 14486 14487 28
11590 14486 14488 28
11591 14486 14489 28
11592 14486 14490 28
11593 14491 14492 28
11594 14491 14493 28
11595 14491 14494 28
11596 14491 14495 28
11597 14496 14497 28
11598 14496 14498 28
11599 14496 14499 28
11600 14496 14500 28
11601 14501 14502 28
11602 14501 14503 28
11603 14501 14504 28
11604 14501 14505 28
11605 14506 14507 28
11606 14506 14508 28
11607 14506 14509 28
11608 14506 14510 28
11609 14511 14512 28
11610 14511 14513 28
11611 14511 14514 28
11612 14511 14515 28
11613 14516 14517 28
11614 14516 14518 28
11615 14516 14519 28
11616 14516 14520 28
11617 14521 14522 28
11618 14521 14523 28
11619 14521 14524 28
11620 14521 14525 28
11621 14526 14527 28
11622 14526 14528 28
11623 14526 14529 28
11624 14526 14530 28
11625 14531 14532 28
11626 14531 14533 28
11627 14531 14534 28
11628 14531 14535 28
11629 14536 14537 28
11630 14536 14538 28
11631 14536 14539 28
11632 14536 14540 28
11633 14541 14542 28
11634 14541 14543 28
11635 14541 14544 28
11636 14541 14545 28
11637 14546 14547 28
11638 14546 14548 28
11639 14546 14549 28
11640 14546 14550 28
11641 14551 14552 28
11642 14551 14553 28
11643 14551 14554 28
11644 14551 14555 28
11645 14556 14557 28
11646 14556 14558 28
11647 14556 14559 28
11648 14556 14560 28
11649 14561 14562 28
11650 14561 14563 28
11651 14561 14564 28
11652 14561 14565 28
11653 14566 14567 28
11654 14566 14568 28
11655 14566 14569 28
11656 14566 14570 28
11657 14571 14572 28
11658 14571 14573 28
11659 14571 14574 28
11660 14571 14575 28
11661 14576 14577 28
11662 14576 14578 28
11663 14576 14579 28
11664 14576 14580 28
11665 14581 14582 28
11666 14581 14583 28
11667 14581 14584 28
11668 14581 14585 28
11669 14586 14587 28
11670 14586 14588 28
11671 14586 14589 28
11672 14586 14590 28
11673 14591 14592 28
11674 14591 14593 28
11675 14591 14594 28
11676 14591 14595 28
11677 14596 14597 28
11678 14596 14598 28
11679 14596 14599 28
11680 14596 14600 28
11681 14601 14602 28
11682 14601 14603 28
11683 14601 14604 28
11684 14601 14605 28
11685 14606 14607 28
11686 14606 14608 28
11687 14606 14609 28
11688 14606 14610 28
11689 14611 14612 28
11690 14611 14613 28
11691 14611 14614 28
11692 14611 14615 28
11693 14616 14617 28
11694 14616 14618 28
11695 14616 14619 28
11696 14616 14620 28
11697 14621 14622 28
11698 14621 14623 28
11699 14621 14624 28
11700 14621 14625 28
11701 14626 14627 28
11702 14626 14628 28
11703 14626 14629 28
11704 14626 14630 28
11705 14631 14632 28
11706 14631 14633 28
11707 14631 14634 28
11708 14631 14635 28
11709 14636 14637 28
11710 14636 14638 28
11711 14636 14639 28
11712 14636 14640 28
11713 14641 14642 28
11714 14641 14643 28
11715 14641 14644 28
11716 14641 14645 28
11717 14646 14647 28
11718 14646 14648 28
11719 14646 14649 28
11720 14646 14650 28
11721 14651 14652 28
11722 14651 14653 28
11723 14651 14654 28
11724 14651 14655 28
11725 14656 14657 28
11726 14656 14658 28
11727 14656 14659 28
11728 14656 14660 28
11729 14661 14662 28
11730 14661 14663 28
11731 14661 14664 28
11732 14661 14665 28
11733 14666 14667 28
11734 14666 14668 28
11735 14666 14669 28
11736 14666 14670 28
11737 14671 14672 28
11738 14671 14673 28
11739 14671 14674 28
11740 14671 14675 28
11741 14676 14677 28
11742 14676 14678 28
11743 14676 14679 28
11744 14676 14680 28
11745 14681 14682 28
11746 14681 14683 28
11747 14681 14684 28
11748 14681 14685 28
11749 14686 14687 28
11750 14686 14688 28
11751 14686 14689 28
11752 14686 14690 28
11753 14691 14692 28
11754 14691 14693 28
11755 14691 14694 28
11756 14691 14695 28
11757 14696 14697 28
11758 14696 14698 28
11759 14696 14699 28
11760 14696 14700 28
11761 14701 14702 28
11762 14701 14703 28
11763 14701 14704 28
11764 14701 14705 28
11765 14706 14707 28
11766 14706 14708 28
11767 14706 14709 28
11768 14706 14710 28
11769 14711 14712 28
11770 14711 14713 28
11771 14711 14714 28
11772 14711 14715 28
11773 14716 14717 28
11774 14716 14718 28
11775 14716 14719 28
11776 14716 14720 28
11777 14721 14722 28
11778 14721 14723 28
11779 14721 14724 28
11780 14721 14725 28
11781 14726 14727 28
11782 14726 14728 28
11783 14726 14729 28
11784 14726 14730 28
11785 14731 14732 28
11786 14731 14733 28
11787 14731 14734 28
11788 14731 14735 28
11789 14736 14737 28
11790 14736 14738 28
11791 14736 14739 28
11792 14736 14740 28
11793 14741 14742 28
11794 14741 14743 28
11795 14741 14744 28
11796 14741 14745 28
11797 14746 14747 28
11798 14746 14748 28
11799 14746 14749 28
11800 14746 14750 28
11801 14751 14752 28
11802 14751 14753 28
11803 14751 14754 28
11804 14751 14755 28
11805 14756 14757 28
11806 14756 14758 28
11807 14756 14759 28
11808 14756 14760 28
11809 14761 14762 28
11810 14761 14763 28
11811 14761 14764 28
11812 14761 14765 28
11813 14766 14767 28
11814 14766 14768 28
11815 14766 14769 28
11816 14766 14770 28
11817 14771 14772 28
11818 14771 14773 28
11819 14771 14774 28
11820 14771 14775 28
11821 14776 14777 28
11822 14776 14778 28
11823 14776 14779 28
11824 14776 14780 28
11825 14781 14782 28
11826 14781 14783 28
11827 14781 14784 28
11828 14781 14785 28
11829 14786 14787 28
11830 14786 14788 28
11831 14786 14789 28
11832 14786 14790 28
11833 14791 14792 28
11834 14791 14793 28
11835 14791 14794 28
11836 14791 14795 28
11837 14796 14797 28
11838 14796 14798 28
11839 14796 14799 28
11840 14796 14800 28
11841 14801 14802 28
11842 14801 14803 28
11843 14801 14804 28
11844 14801 14805 28
11845 14806 14807 28
11846 14806 14808 28
11847 14806 14809 28
11848 14806 14810 28
11849 14811 14812 28
11850 14811 14813 28
11851 14811 14814 28
11852 14811 14815 28
11853 14816 14817 28
11854 14816 14818 28
11855 14816 14819 28
11856 14816 14820 28
11857 14821 14822 28
11858 14821 14823 28
11859 14821 14824 28
11860 14821 14825 28
11861 14826 14827 28
11862 14826 14828 28
11863 14826 14829 28
11864 14826 14830 28
11865 14831 14832 28
11866 14831 14833 28
11867 14831 14834 28
11868 14831 14835 28
11869 14836 14837 28
11870 14836 14838 28
11871 14836 14839 28
11872 14836 14840 28
11873 14841 14842 28
11874 14841 14843 28
11875 14841 14844 28
11876 14841 14845 28
11877 14846 14847 28
11878 14846 14848 28
11879 14846 14849 28
11880 14846 14850 28
11881 14851 14852 28
11882 14851 14853 28
11883 14851 14854 28
11884 14851 14855 28
11885 14856 14857 28
11886 14856 14858 28
11887 14856 14859 28
11888 14856 14860 28
11889 14861 14862 28
11890 14861 14863 28
11891 14861 14864 28
11892 14861 14865 28
11893 14866 14867 28
11894 14866 14868 28
11895 14866 14869 28
11896 14866 14870 28
11897 14871 14872 28
11898 14871 14873 28
11899 14871 14874 28
11900 14871 14875 28
11901 14876 14877 28
11902 14876 14878 28
11903 14876 14879 28
11904 14876 14880 28
11905 14881 14882 28
11906 14881 14883 28
11907 14881 14884 28
11908 14881 14885 28
11909 14886 14887 28
11910 14886 14888 28
11911 14886 14889 28
11912 14886 14890 28
11913 14891 14892 28
11914 14891 14893 28
11915 14891 14894 28
11916 14891 14895 28
11917 14896 14897 28
11918 14896 14898 28
11919 14896 14899 28
11920 14896 14900 28
11921 14901 14902 28
11922 14901 14903 28
11923 14901 14904 28
11924 14901 14905 28
11925 14906 14907 28
11926 14906 14908 28
11927 14906 14909 28
11928 14906 14910 28
11929 14911 14912 28
11930 14911 14913 28
11931 14911 14914 28
11932 14911 14915 28
11933 14916 14917 28
11934 14916 14918 28
11935 14916 14919 28
11936 14916 14920 28
11937 14921 14922 28
11938 14921 14923 28
11939 14921 14924 28
11940 14921 14925 28
11941 14926 14927 28
11942 14926 14928 28
11943 14926 14929 28
11944 14926 14930 28
11945 14931 14932 28
11946 14931 14933 28
11947 14931 14934 28
11948 14931 14935 28
11949 14936 14937 28
11950 14936 14938 28
11951 14936 14939 28
11952 14936 14940 28
11953 14941 14942 28
11954 14941 14943 28
11955 14941 14944 28
11956 14941 14945 28
11957 14946 14947 28
11958 14946 14948 28
11959 14946 14949 28
11960 14946 14950 28
11961 14951 14952 28
11962 14951 14953 28
11963 14951 14954 28
11964 14951 14955 28
11965 14956 14957 28
11966 14956 14958 28
11967 14956 14959 28
11968 14956 14960 28
11969 14961 14962 28
11970 14961 14963 28
11971 14961 14964 28
11972 14961 14965 28
11973 14966 14967 28
11974 14966 14968 28
11975 14966 14969 28
11976 14966 14970 28
11977 14971 14972 28
11978 14971 14973 28
11979 14971 14974 28
11980 14971 14975 28
11981 14976 14977 28
11982 14976 14978 28
11983 14976 14979 28
11984 14976 14980 28
11985 14981 14982 28
11986 14981 14983 28
11987 14981 14984 28
11988 14981 14985 28
11989 14986 14987 28
11990 14986 14988 28
11991 14986 14989 28
11992 14986 14990 28
11993 14991 14992 28
11994 14991 14993 28
11995 14991 14994 28
11996 14991 14995 28
11997 14996 14997 28
11998 14996 14998 28
11999 14996 14999 28
12000 14996 15000 28
12001 15001 15002 28
12002 15001 15003 28
12003 15001 15004 28
12004 15001 15005 28
12005 15006 15007 28
12006 15006 15008 28
12007 15006 15009 28
12008 15006 15010 28
12009 15011 15012 28
12010 15011 15013 28
12011 15011 15014 28
12012 15011 15015 28
12013 15016 15017 28
12014 15016 15018 28
12015 15016 15019 28
12016 15016 15020 28
12017 15021 15022 28
12018 15021 15023 28
12019 15021 15024 28
12020 15021 15025 28
12021 15026 15027 28
12022 15026 15028 28
12023 15026 15029 28
12024 15026 15030 28
12025 15031 15032 28
12026 15031 15033 28
12027 15031 15034 28
12028 15031 15035 28
12029 15036 15037 28
12030 15036 15038 28
12031 15036 15039 28
12032 15036 15040 28
12033 15041 15042 28
12034 15041 15043 28
12035 15041 15044 28
12036 15041 15045 28
12037 15046 15047 28
12038 15046 15048 28
12039 15046 15049 28
12040 15046 15050 28
12041 15051 15052 28
12042 15051 15053 28
12043 15051 15054 28
12044 15051 15055 28
12045 15056 15057 28
12046 15056 15058 28
12047 15056 15059 28
12048 15056 15060 28
12049 15061 15062 28
12050 15061 15063 28
12051 15061 15064 28
12052 15061 15065 28
12053 15066 15067 28
12054 15066 15068 28
12055 15066 15069 28
12056 15066 15070 28
12057 15071 15072 28
12058 15071 15073 28
12059 15071 15074 28
12060 15071 15075 28
12061 15076 15077 28
12062 15076 15078 28
12063 15076 15079 28
12064 15076 15080 28
12065 15081 15082 28
12066 15081 15083 28
12067 15081 15084 28
12068 15081 15085 28
12069 15086 15087 28
12070 15086 15088 28
12071 15086 15089 28
12072 15086 15090 28
12073 15091 15092 28
12074 15091 15093 28
12075 15091 15094 28
12076 15091 15095 28
12077 15096 15097 28
12078 15096 15098 28
12079 15096 15099 28
12080 15096 15100 28
12081 15101 15102 28
12082 15101 15103 28
12083 15101 15104 28
12084 15101 15105 28
12085 15106 15107 28
12086 15106 15108 28
12087 15106 15109 28
12088 15106 15110 28
12089 15111 15112 28
12090 15111 15113 28
12091 15111 15114 28
12092 15111 15115 28
12093 15116 15117 28
12094 15116 15118 28
12095 15116 15119 28
12096 15116 15120 28
12097 15121 15122 28
12098 15121 15123 28
12099 15121 15124 28
12100 15121 15125 28
12101 15126 15127 28
12102 15126 15128 28
12103 15126 15129 28
12104 15126 15130 28
12105 15131 15132 28
12106 15131 15133 28
12107 15131 15134 28
12108 15131 15135 28
12109 15136 15137 28
12110 15136 15138 28
12111 15136 15139 28
12112 15136 15140 28
12113 15141 15142 28
12114 15141 15143 28
12115 15141 15144 28
12116 15141 15145 28
12117 15146 15147 28
12118 15146 15148 28
12119 15146 15149 28
12120 15146 15150 28
12121 15151 15152 28
12122 15151 15153 28
12123 15151 15154 28
12124 15151 15155 28
12125 15156 15157 28
12126 15156 15158 28
12127 15156 15159 28
12128 15156 15160 28
12129 15161 15162 28
12130 15161 15163 28
12131 15161 15164 28
12132 15161 15165 28
12133 15166 15167 28
12134 15166 15168 28
12135 15166 15169 28
12136 15166 15170 28
12137 15171 15172 28
12138 15171 15173 28
12139 15171 15174 28
12140 15171 15175 28
12141 15176 15177 28
12142 15176 15178 28
12143 15176 15179 28
12144 15176 15180 28
12145 15181 15182 28
12146 15181 15183 28
12147 15181 15184 28
12148 15181 15185 28
12149 15186 15187 28
12150 15186 15188 28
12151 15186 15189 28
12152 15186 15190 28
12153 15191 15192 28
12154 15191 15193 28
12155 15191 15194 28
12156 15191 15195 28
12157 15196 15197 28
12158 15196 15198 28
12159 15196 15199 28
12160 15196 15200 28
12161 15201 15202 28
12162 15201 15203 28
12163 15201 15204 28
12164 15201 15205 28
12165 15206 15207 28
12166 15206 15208 28
12167 15206 15209 28
12168 15206 15210 28
12169 15211 15212 28
12170 15211 15213 28
12171 15211 15214 28
12172 15211 15215 28
12173 15216 15217 28
12174 15216 15218 28
12175 15216 15219 28
12176 15216 15220 28
12177 15221 15222 28
12178 15221 15223 28
12179 15221 15224 28
12180 15221 15225 28
12181 15226 15227 28
12182 15226 15228 28
12183 15226 15229 28
12184 15226 15230 28
12185 15231 15232 28
12186 15231 15233 28
12187 15231 15234 28
12188 15231 15235 28
12189 15236 15237 28
12190 15236 15238 28
12191 15236 15239 28
12192 15236 15240 28
12193 15241 15242 28
12194 15241 15243 28
12195 15241 15244 28
12196 15241 15245 28
12197 15246 15247 28
12198 15246 15248 28
12199 15246 15249 28
12200 15246 15250 28
12201 15251 15252 28
12202 15251 15253 28
12203 15251 15254 28
12204 15251 15255 28
12205 15256 15257 28
12206 15256 15258 28
12207 15256 15259 28
12208 15256 15260 28
12209 15261 15262 28
12210 15261 15263 28
12211 15261 15264 28
12212 15261 15265 28
12213 15266 15267 28
12214 15266 15268 28
12215 15266 15269 28
12216 15266 15270 28
12217 15271 15272 28
12218 15271 15273 28
12219 15271 15274 28
12220 15271 15275 28
12221 15276 15277 28
12222 15276 15278 28
12223 15276 15279 28
12224 15276 15280 28
12225 15281 15282 28
12226 15281 15283 28
12227 15281 15284 28
12228 15281 15285 28
12229 15286 15287 28
12230 15286 15288 28
12231 15286 15289 28
12232 15286 15290 28
12233 15291 15292 28
12234 15291 15293 28
12235 15291 15294 28
12236 15291 15295 28
12237 15296 15297 28
12238 15296 15298 28
12239 15296 15299 28
12240 15296 15300 28
12241 15301 15302 28
12242 15301 15303 28
12243 15301 15304 28
12244 15301 15305 28
12245 15306 15307 28
12246 15306 15308 28
12247 15306 15309 28
12248 15306 15310 28
12249 15311 15312 28
12250 15311 15313 28
12251 15311 15314 28
12252 15311 15315 28
12253 15316 15317 28
12254 15316 15318 28
12255 15316 15319 28
12256 15316 15320 28
12257 15321 15322 28
12258 15321 15323 28
12259 15321 15324 28
12260 15321 15325 28
12261 15326 15327 28
12262 15326 15328 28
12263 15326 15329 28
12264 15326 15330 28
12265 15331 15332 28
12266 15331 15333 28
12267 15331 15334 28
12268 15331 15335 28
12269 15336 15337 28
12270 15336 15338 28
12271 15336 15339 28
12272 15336 15340 28
12273 15341 15342 28
12274 15341 15343 28
12275 15341 15344 28
12276 15341 15345 28
12277 15346 15347 28
12278 15346 15348 28
12279 15346 15349 28
12280 15346 15350 28
12281 15351 15352 28
12282 15351 15353 28
12283 15351 15354 28
12284 15351 15355 28
12285 15356 15357 28
12286 15356 15358 28
12287 15356 15359 28
12288 15356 15360 28
12289 15361 15362 28
12290 15361 15363 28
12291 15361 15364 28
12292 15361 15365 28
12293 15366 15367 28
12294 15366 15368 28
12295 15366 15369 28
12296 15366 15370 28
12297 15371 15372 28
12298 15371 15373 28
12299 15371 15374 28
12300 15371 15375 28
12301 15376 15377 28
12302 15376 15378 28
12303 15376 15379 28
12304 15376 15380 28
12305 15381 15382 28
12306 15381 15383 28
12307 15381 15384 28
12308 15381 15385 28
12309 15386 15387 28
12310 15386 15388 28
12311 15386 15389 28
12312 15386 15390 28
12313 15391 15392 28
12314 15391 15393 28
12315 15391 15394 28
12316 15391 15395 28
12317 15396 15397 28
12318 15396 15398 28
12319 15396 15399 28
12320 15396 15400 28
12321 15401 15402 28
12322 15401 15403 28
12323 15401 15404 28
12324 15401 15405 28
12325 15406 15407 28
12326 15406 15408 28
12327 15406 15409 28
12328 15406 15410 28
12329 15411 15412 28
12330 15411 15413 28
12331 15411 15414 28
12332 15411 15415 28
12333 15416 15417 28
12334 15416 15418 28
12335 15416 15419 28
12336 15416 15420 28
12337 15421 15422 28
12338 15421 15423 28
12339 15421 15424 28
12340 15421 15425 28
12341 15426 15427 28
12342 15426 15428 28
12343 15426 15429 28
12344 15426 15430 28
12345 15431 15432 28
12346 15431 15433 28
12347 15431 15434 28
12348 15431 15435 28
12349 15436 15437 28
12350 15436 15438 28
12351 15436 15439 28
12352 15436 15440 28
12353 15441 15442 28
12354 15441 15443 28
12355 15441 15444 28
12356 15441 15445 28
12357 15446 15447 28
12358 15446 15448 28
12359 15446 15449 28
12360 15446 15450 28
12361 15451 15452 28
12362 15451 15453 28
12363 15451 15454 28
12364 15451 15455 28
12365 15456 15457 28
12366 15456 15458 28
12367 15456 15459 28
12368 15456 15460 28
12369 15461 15462 28
12370 15461 15463 28
12371 15461 15464 28
12372 15461 15465 28
12373 15466 15467 28
12374 15466 15468 28
12375 15466 15469 28
12376 15466 15470 28
12377 15471 15472 28
12378 15471 15473 28
12379 15471 15474 28
12380 15471 15475 28
12381 15476 15477 28
12382 15476 15478 28
12383 15476 15479 28
12384 15476 15480 28
12385 15481 15482 28
12386 15481 15483 28
12387 15481 15484 28
12388 15481 15485 28
12389 15486 15487 28
12390 15486 15488 28
12391 15486 15489 28
12392 15486 15490 28
12393 15491 15492 28
12394 15491 15493 28
12395 15491 15494 28
12396 15491 15495 28
12397 15496 15497 28
12398 15496 15498 28
12399 15496 15499 28
12400 15496 15500 28
12401 15501 15502 28
12402 15501 15503 28
12403 15501 15504 28
12404 15501 15505 28
12405 15506 15507 28
12406 15506 15508 28
12407 15506 15509 28
12408 15506 15510 28
12409 15511 15512 28
12410 15511 15513 28
12411 15511 15514 28
12412 15511 15515 28
12413 15516 15517 28
12414 15516 15518 28
12415 15516 15519 28
12416 15516 15520 28
12417 15521 15522 28
12418 15521 15523 28
12419 15521 15524 28
12420 15521 15525 28
12421 15526 15527 28
12422 15526 15528 28
12423 15526 15529 28
12424 15526 15530 28
12425 15531 15532 28
12426 15531 15533 28
12427 15531 15534 28
12428 15531 15535 28
12429 15536 15537 28
12430 15536 15538 28
12431 15536 15539 28
12432 15536 15540 28
12433 15541 15542 28
12434 15541 15543 28
12435 15541 15544 28
12436 15541 15545 28
12437 15546 15547 28
12438 15546 15548 28
12439 15546 15549 28
12440 15546 15550 28
12441 15551 15552 28
12442 15551 15553 28
12443 15551 15554 28
12444 15551 15555 28
12445 15556 15557 28
12446 15556 15558 28
12447 15556 15559 28
12448 15556 15560 28
12449 15561 15562 28
12450 15561 15563 28
12451 15561 15564 28
12452 15561 15565 28
12453 15566 15567 28
12454 15566 15568 28
12455 15566 15569 28
12456 15566 15570 28
12457 15571 15572 28
12458 15571 15573 28
12459 15571 15574 28
12460 15571 15575 28
12461 15576 15577 28
12462 15576 15578 28
12463 15576 15579 28
12464 15576 15580 28
12465 15581 15582 28
12466 15581 15583 28
12467 15581 15584 28
12468 15581 15585 28
12469 15586 15587 28
12470 15586 15588 28
12471 15586 15589 28
12472 15586 15590 28
12473 15591 15592 28
12474 15591 15593 28
12475 15591 15594 28
12476 15591 15595 28
12477 15596 15597 28
12478 15596 15598 28
12479 15596 15599 28
12480 15596 15600 28
12481 15601 15602 28
12482 15601 15603 28
12483 15601 15604 28
12484 15601 15605 28
12485 15606 15607 28
12486 15606 15608 28
12487 15606 15609 28
12488 15606 15610 28
12489 15611 15612 28
12490 15611 15613 28
12491 15611 15614 28
12492 15611 15615 28
12493 15616 15617 28
12494 15616 15618 28
12495 15616 15619 28
12496 15616 15620 28
12497 15621 15622 28
12498 15621 15623 28
12499 15621 15624 28
12500 15621 15625 28
12501 15626 15627 28
12502 15626 15628 28
12503 15626 15629 28
12504 15626 15630 28
12505 15631 15632 28
12506 15631 15633 28
12507 15631 15634 28
12508 15631 15635 28
12509 15636 15637 28
12510 15636 15638 28
12511 15636 15639 28
12512 15636 15640 28
12513 15641 15642 28
12514 15641 15643 28
12515 15641 15644 28
12516 15641 15645 28
12517 15646 15647 28
12518 15646 15648 28
12519 15646 15649 28
12520 15646 15650 28
12521 15651 15652 28
12522 15651 15653 28
12523 15651 15654 28
12524 15651 15655 28
12525 15656 15657 28
12526 15656 15658 28
12527 15656 15659 28
12528 15656 15660 28
12529 15661 15662 28
12530 15661 15663 28
12531 15661 15664 28
12532 15661 15665 28
12533 15666 15667 28
12534 15666 15668 28
12535 15666 15669 28
12536 15666 15670 28
12537 15671 15672 28
12538 15671 15673 28
12539 15671 15674 28
12540 15671 15675 28
12541 15676 15677 28
12542 15676 15678 28
12543 15676 15679 28
12544 15676 15680 28
12545 15681 15682 28
12546 15681 15683 28
12547 15681 15684 28
12548 15681 15685 28
12549 15686 15687 28
12550 15686 15688 28
12551 15686 15689 28
12552 15686 15690 28
12553 15691 15692 28
12554 15691 15693 28
12555 15691 15694 28
12556 15691 15695 28
12557 15696 15697 28
12558 15696 15698 28
12559 15696 15699 28
12560 15696 15700 28
12561 15701 15702 28
12562 15701 15703 28
12563 15701 15704 28
12564 15701 15705 28
12565 15706 15707 28
12566 15706 15708 28
12567 15706 15709 28
12568 15706 15710 28
12569 15711 15712 28
12570 15711 15713 28
12571 15711 15714 28
12572 15711 15715 28
12573 15716 15717 28
12574 15716 15718 28
12575 15716 15719 28
12576 15716 15720 28
12577 15721 15722 28
12578 15721 15723 28
12579 15721 15724 28
12580 15721 15725 28
12581 15726 15727 28
12582 15726 15728 28
12583 15726 15729 28
12584 15726 15730 28
12585 15731 15732 28
12586 15731 15733 28
12587 15731 15734 28
12588 15731 15735 28
12589 15736 15737 28
12590 15736 15738 28
12591 15736 15739 28
12592 15736 15740 28
12593 15741 15742 28
12594 15741 15743 28
12595 15741 15744 28
12596 15741 15745 28
12597 15746 15747 28
12598 15746 15748 28
12599 15746 15749 28
12600 15746 15750 28
12601 15751 15752 28
12602 15751 15753 28
12603 15751 15754 28
12604 15751 15755 28
12605 15756 15757 28
12606 15756 15758 28
12607 15756 15759 28
12608 15756 15760 28
12609 15761 15762 28
12610 15761 15763 28
12611 15761 15764 28
12612 15761 15765 28
12613 15766 15767 28
12614 15766 15768 28
12615 15766 15769 28
12616 15766 15770 28
12617 15771 15772 28
12618 15771 15773 28
12619 15771 15774 28
12620 15771 15775 28
12621 15776 15777 28
12622 15776 15778 28
12623 15776 15779 28
12624 15776 15780 28
12625 15781 15782 28
12626 15781 15783 28
12627 15781 15784 28
12628 15781 15785 28
12629 15786 15787 28
12630 15786 15788 28
12631 15786 15789 28
12632 15786 15790 28
12633 15791 15792 28
12634 15791 15793 28
12635 15791 15794 28
12636 15791 15795 28
12637 15796 15797 28
12638 15796 15798 28
12639 15796 15799 28
12640 15796 15800 28
12641 15801 15802 28
12642 15801 15803 28
12643 15801 15804 28
12644 15801 15805 28
12645 15806 15807 28
12646 15806 15808 28
12647 15806 15809 28
12648 15806 15810 28
12649 15811 15812 28
12650 15811 15813 28
12651 15811 15814 28
12652 15811 15815 28
12653 15816 15817 28
12654 15816 15818 28
12655 15816 15819 28
12656 15816 15820 28
12657 15821 15822 28
12658 15821 15823 28
12659 15821 15824 28
12660 15821 15825 28
12661 15826 15827 28
12662 15826 15828 28
12663 15826 15829 28
12664 15826 15830 28
12665 15831 15832 28
12666 15831 15833 28
12667 15831 15834 28
12668 15831 15835 28
12669 15836 15837 28
12670 15836 15838 28
12671 15836 15839 28
12672 15836 15840 28
12673 15841 15842 28
12674 15841 15843 28
12675 15841 15844 28
12676 15841 15845 28
12677 15846 15847 28
12678 15846 15848 28
12679 15846 15849 28
12680 15846 15850 28
12681 15851 15852 28
12682 15851 15853 28
12683 15851 15854 28
12684 15851 15855 28
12685 15856 15857 28
12686 15856 15858 28
12687 15856 15859 28
12688 15856 15860 28
12689 15861 15862 28
12690 15861 15863 28
12691 15861 15864 28
12692 15861 15865 28
12693 15866 15867 28
12694 15866 15868 28
12695 15866 15869 28
12696 15866 15870 28
12697 15871 15872 28
12698 15871 15873 28
12699 15871 15874 28
12700 15871 15875 28
12701 15876 15877 28
12702 15876 15878 28
12703 15876 15879 28
12704 15876 15880 28
12705 15881 15882 28
12706 15881 15883 28
12707 15881 15884 28
12708 15881 15885 28
12709 15886 15887 28
12710 15886 15888 28
12711 15886 15889 28
12712 15886 15890 28
12713 15891 15892 28
12714 15891 15893 28
12715 15891 15894 28
12716 15891 15895 28
12717 15896 15897 28
12718 15896 15898 28
12719 15896 15899 28
12720 15896 15900 28
12721 15901 15902 28
12722 15901 15903 28
12723 15901 15904 28
12724 15901 15905 28
12725 15906 15907 28
12726 15906 15908 28
12727 15906 15909 28
12728 15906 15910 28
12729 15911 15912 28
12730 15911 15913 28
12731 15911 15914 28
12732 15911 15915 28
12733 15916 15917 28
12734 15916 15918 28
12735 15916 15919 28
12736 15916 15920 28
12737 15921 15922 28
12738 15921 15923 28
12739 15921 15924 28
12740 15921 15925 28
12741 15926 15927 28
12742 15926 15928 28
12743 15926 15929 28
12744 15926 15930 28
12745 15931 15932 28
12746 15931 15933 28
12747 15931 15934 28
12748 15931 15935 28
12749 15936 15937 28
12750 15936 15938 28
12751 15936 15939 28
12752 15936 15940 28
12753 15941 15942 28
12754 15941 15943 28
12755 15941 15944 28
12756 15941 15945 28
12757 15946 15947 28
12758 15946 15948 28
12759 15946 15949 28
12760 15946 15950 28
12761 15951 15952 28
12762 15951 15953 28
12763 15951 15954 28
12764 15951 15955 28
12765 15956 15957 28
12766 15956 15958 28
12767 15956 15959 28
12768 15956 15960 28
12769 15961 15962 28
12770 15961 15963 28
12771 15961 15964 28
12772 15961 15965 28
12773 15966 15967 28
12774 15966 15968 28
12775 15966 15969 28
12776 15966 15970 28
12777 15971 15972 28
12778 15971 15973 28
12779 15971 15974 28
12780 15971 15975 28
12781 15976 15977 28
12782 15976 15978 28
12783 15976 15979 28
12784 15976 15980 28
12785 15981 15982 28
12786 15981 15983 28
12787 15981 15984 28
12788 15981 15985 28
12789 15986 15987 28
12790 15986 15988 28
12791 15986 15989 28
12792 15986 15990 28
12793 15991 15992 28
12794 15991 15993 28
12795 15991 15994 28
12796 15991 15995 28
12797 15996 15997 28
12798 15996 15998 28
12799 15996 15999 28
12800 15996 16000 28
12801 16001 16002 28
12802 16001 16003 28
12803 16001 16004 28
12804 16001 16005 28
12805 16006 16007 28
12806 16006 16008 28
12807 16006 16009 28
12808 16006 16010 28
12809 16011 16012 28
12810 16011 16013 28
12811 16011 16014 28
12812 16011 16015 28
12813 16016 16017 28
12814 16016 16018 28
12815 16016 16019 28
12816 16016 16020 28
12817 16021 16022 28
12818 16021 16023 28
12819 16021 16024 28
12820 16021 16025 28
12821 16026 16027 28
12822 16026 16028 28
12823 16026 16029 28
12824 16026 16030 28
12825 16031 16032 28
12826 16031 16033 28
12827 16031 16034 28
12828 16031 16035 28
12829 16036 16037 28
12830 16036 16038 28
12831 16036 16039 28
12832 16036 16040 28
12833 16041 16042 28
12834 16041 16043 28
12835 16041 16044 28
12836 16041 16045 28
12837 16046 16047 28
12838 16046 16048 28
12839 16046 16049 28
12840 16046 16050 28
12841 16051 16052 28
12842 16051 16053 28
12843 16051 16054 28
12844 16051 16055 28
12845 16056 16057 28
12846 16056 16058 28
12847 16056 16059 28
12848 16056 16060 28
12849 16061 16062 28
12850 16061 16063 28
12851 16061 16064 28
12852 16061 16065 28
12853 16066 16067 28
12854 16066 16068 28
12855 16066 16069 28
12856 16066 16070 28
12857 16071 16072 28
12858 16071 16073 28
12859 16071 16074 28
12860 16071 16075 28
12861 16076 16077 28
12862 16076 16078 28
12863 16076 16079 28
12864 16076 16080 28
12865 16081 16082 28
12866 16081 16083 28
12867 16081 16084 28
12868 16081 16085 28
12869 16086 16087 28
12870 16086 16088 28
12871 16086 16089 28
12872 16086 16090 28
12873 16091 16092 28
12874 16091 16093 28
12875 16091 16094 28
12876 16091 16095 28
12877 16096 16097 28
12878 16096 16098 28
12879 16096 16099 28
12880 16096 16100 28
12881 16101 16102 28
12882 16101 16103 28
12883 16101 16104 28
12884 16101 16105 28
12885 16106 16107 28
12886 16106 16108 28
12887 16106 16109 28
12888 16106 16110 28
12889 16111 16112 28
12890 16111 16113 28
12891 16111 16114 28
12892 16111 16115 28
12893 16116 16117 28
12894 16116 16118 28
12895 16116 16119 28
12896 16116 16120 28
12897 16121 16122 28
12898 16121 16123 28
12899 16121 16124 28
12900 16121 16125 28
12901 16126 16127 28
12902 16126 16128 28
12903 16126 16129 28
12904 16126 16130 28
12905 16131 16132 28
12906 16131 16133 28
12907 16131 16134 28
12908 16131 16135 28
12909 16136 16137 28
12910 16136 16138 28
12911 16136 16139 28
12912 16136 16140 28
12913 16141 16142 28
12914 16141 16143 28
12915 16141 16144 28
12916 16141 16145 28
12917 16146 16147 28
12918 16146 16148 28
12919 16146 16149 28
12920 16146 16150 28
12921 16151 16152 28
12922 16151 16153 28
12923 16151 16154 28
12924 16151 16155 28
12925 16156 16157 28
12926 16156 16158 28
12927 16156 16159 28
12928 16156 16160 28
12929 16161 16162 28
12930 16161 16163 28
12931 16161 16164 28
12932 16161 16165 28
12933 16166 16167 28
12934 16166 16168 28
12935 16166 16169 28
12936 16166 16170 28
12937 16171 16172 28
12938 16171 16173 28
12939 16171 16174 28
12940 16171 16175 28
12941 16176 16177 28
12942 16176 16178 28
12943 16176 16179 28
12944 16176 16180 28
12945 16181 16182 28
12946 16181 16183 28
12947 16181 16184 28
12948 16181 16185 28
12949 16186 16187 28
12950 16186 16188 28
12951 16186 16189 28
12952 16186 16190 28
12953 16191 16192 28
12954 16191 16193 28
12955 16191 16194 28
12956 16191 16195 28
12957 16196 16197 28
12958 16196 16198 28
12959 16196 16199 28
12960 16196 16200 28
12961 16201 16202 28
12962 16201 16203 28
12963 16201 16204 28
12964 16201 16205 28
12965 16206 16207 28
12966 16206 16208 28
12967 16206 16209 28
12968 16206 16210 28
12969 16211 16212 28
12970 16211 16213 28
12971 16211 16214 28
12972 16211 16215 28
12973 16216 16217 28
12974 16216 16218 28
12975 16216 16219 28
12976 16216 16220 28
12977 16221 16222 28
12978 16221 16223 28
12979 16221 16224 28
12980 16221 16225 28
12981 16226 16227 28
12982 16226 16228 28
12983 16226 16229 28
12984 16226 16230 28
12985 16231 16232 28
12986 16231 16233 28
12987 16231 16234 28
12988 16231 16235 28
12989 16236 16237 28
12990 16236 16238 28
12991 16236 16239 28
12992 16236 16240 28
12993 16241 16242 28
12994 16241 16243 28
12995 16241 16244 28
12996 16241 16245 28
12997 16246 16247 28
12998 16246 16248 28
12999 16246 16249 28
13000 16246 16250 28
13001 16251 16252 28
13002 16251 16253 28
13003 16251 16254 28
13004 16251 16255 28
13005 16256 16257 28
13006 16256 16258 28
13007 16256 16259 28
13008 16256 16260 28
13009 16261 16262 28
13010 16261 16263 28
13011 16261 16264 28
13012 16261 16265 28
13013 16266 16267 28
13014 16266 16268 28
13015 16266 16269 28
13016 16266 16270 28
13017 16271 16272 28
13018 16271 16273 28
13019 16271 16274 28
13020 16271 16275 28
13021 16276 16277 28
13022 16276 16278 28
13023 16276 16279 28
13024 16276 16280 28
13025 16281 16282 28
13026 16281 16283 28
13027 16281 16284 28
13028 16281 16285 28
13029 16286 16287 28
13030 16286 16288 28
13031 16286 16289 28
13032 16286 16290 28
13033 16291 16292 28
13034 16291 16293 28
13035 16291 16294 28
13036 16291 16295 28
13037 16296 16297 28
13038 16296 16298 28
13039 16296 16299 28
13040 16296 16300 28
13041 16301 16302 28
13042 16301 16303 28
13043 16301 16304 28
13044 16301 16305 28
13045 16306 16307 28
13046 16306 16308 28
13047 16306 16309 28
13048 16306 16310 28
13049 16311 16312 28
13050 16311 16313 28
13051 16311 16314 28
13052 16311 16315 28
13053 16316 16317 28
13054 16316 16318 28
13055 16316 16319 28
13056 16316 16320 28
13057 16321 16322 28
13058 16321 16323 28
13059 16321 16324 28
13060 16321 16325 28
13061 16326 16327 28
13062 16326 16328 28
13063 16326 16329 28
13064 16326 16330 28
13065 16331 16332 28
13066 16331 16333 28
13067 16331 16334 28
13068 16331 16335 28
13069 16336 16337 28
13070 16336 16338 28
13071 16336 16339 28
13072 16336 16340 28
13073 16341 16342 28
13074 16341 16343 28
13075 16341 16344 28
13076 16341 16345 28
13077 16346 16347 28
13078 16346 16348 28
13079 16346 16349 28
13080 16346 16350 28
13081 16351 16352 28
13082 16351 16353 28
13083 16351 16354 28
13084 16351 16355 28
13085 16356 16357 28
13086 16356 16358 28
13087 16356 16359 28
13088 16356 16360 28
13089 16361 16362 28
13090 16361 16363 28
13091 16361 16364 28
13092 16361 16365 28
13093 16366 16367 28
13094 16366 16368 28
13095 16366 16369 28
13096 16366 16370 28
13097 16371 16372 28
13098 16371 16373 28
13099 16371 16374 28
13100 16371 16375 28
13101 16376 16377 28
13102 16376 16378 28
13103 16376 16379 28
13104 16376 16380 28
13105 16381 16382 28
13106 16381 16383 28
13107 16381 16384 28
13108 16381 16385 28
13109 16386 16387 28
13110 16386 16388 28
13111 16386 16389 28
13112 16386 16390 28
13113 16391 16392 28
13114 16391 16393 28
13115 16391 16394 28
13116 16391 16395 28
13117 16396 16397 28
13118 16396 16398 28
13119 16396 16399 28
13120 16396 16400 28
13121 16401 16402 28
13122 16401 16403 28
13123 16401 16404 28
13124 16401 16405 28
13125 16406 16407 28
13126 16406 16408 28
13127 16406 16409 28
13128 16406 16410 28
13129 16411 16412 28
13130 16411 16413 28
13131 16411 16414 28
13132 16411 16415 28
13133 16416 16417 28
13134 16416 16418 28
13135 16416 16419 28
13136 16416 16420 28
13137 16421 16422 28
13138 16421 16423 28
13139 16421 16424 28
13140 16421 16425 28
13141 16426 16427 28
13142 16426 16428 28
13143 16426 16429 28
13144 16426 16430 28
13145 16431 16432 28
13146 16431 16433 28
13147 16431 16434 28
13148 16431 16435 28
13149 16436 16437 28
13150 16436 16438 28
13151 16436 16439 28
13152 16436 16440 28
13153 16441 16442 28
13154 16441 16443 28
13155 16441 16444 28
13156 16441 16445 28
13157 16446 16447 28
13158 16446 16448 28
13159 16446 16449 28
13160 16446 16450 28
13161 16451 16452 28
13162 16451 16453 28
13163 16451 16454 28
13164 16451 16455 28
13165 16456 16457 28
13166 16456 16458 28
13167 16456 16459 28
13168 16456 16460 28
13169 16461 16462 28
13170 16461 16463 28
13171 16461 16464 28
13172 16461 16465 28
13173 16466 16467 28
13174 16466 16468 28
13175 16466 16469 28
13176 16466 16470 28
13177 16471 16472 28
13178 16471 16473 28
13179 16471 16474 28
13180 16471 16475 28
13181 16476 16477 28
13182 16476 16478 28
13183 16476 16479 28
13184 16476 16480 28
13185 16481 16482 28
13186 16481 16483 28
13187 16481 16484 28
13188 16481 16485 28
13189 16486 16487 28
13190 16486 16488 28
13191 16486 16489 28
13192 16486 16490 28
13193 16491 16492 28
13194 16491 16493 28
13195 16491 16494 28
13196 16491 16495 28
13197 16496 16497 28
13198 16496 16498 28
13199 16496 16499 28
13200 16496 16500 28
13201 16501 16502 28
13202 16501 16503 28
13203 16501 16504 28
13204 16501 16505 28
13205 16506 16507 28
13206 16506 16508 28
13207 16506 16509 28
13208 16506 16510 28
13209 16511 16512 28
13210 16511 16513 28
13211 16511 16514 28
13212 16511 16515 28
13213 16516 16517 28
13214 16516 16518 28
13215 16516 16519 28
13216 16516 16520 28
13217 16521 16522 28
13218 16521 16523 28
13219 16521 16524 28
13220 16521 16525 28
13221 16526 16527 28
13222 16526 16528 28
13223 16526 16529 28
13224 16526 16530 28
13225 16531 16532 28
13226 16531 16533 28
13227 16531 16534 28
13228 16531 16535 28
13229 16536 16537 28
13230 16536 16538 28
13231 16536 16539 28
13232 16536 16540 28
13233 16541 16542 28
13234 16541 16543 28
13235 16541 16544 28
13236 16541 16545 28
13237 16546 16547 28
13238 16546 16548 28
13239 16546 16549 28
13240 16546 16550 28
13241 16551 16552 28
13242 16551 16553 28
13243 16551 16554 28
13244 16551 16555 28
13245 16556 16557 28
13246 16556 16558 28
13247 16556 16559 28
13248 16556 16560 28
13249 16561 16562 28
13250 16561 16563 28
13251 16561 16564 28
13252 16561 16565 28
13253 16566 16567 28
13254 16566 16568 28
13255 16566 16569 28
13256 16566 16570 28
13257 16571 16572 28
13258 16571 16573 28
13259 16571 16574 28
13260 16571 16575 28
13261 16576 16577 28
13262 16576 16578 28
13263 16576 16579 28
13264 16576 16580 28
13265 16581 16582 28
13266 16581 16583 28
13267 16581 16584 28
13268 16581 16585 28
13269 16586 16587 28
13270 16586 16588 28
13271 16586 16589 28
13272 16586 16590 28
13273 16591 16592 28
13274 16591 16593 28
13275 16591 16594 28
13276 16591 16595 28
13277 16596 16597 28
13278 16596 16598 28
13279 16596 16599 28
13280 16596 16600 28
13281 16601 16602 28
13282 16601 16603 28
13283 16601 16604 28
13284 16601 16605 28
13285 16606 16607 28
13286 16606 16608 28
13287 16606 16609 28
13288 16606 16610 28
13289 16611 16612 28
13290 16611 16613 28
13291 16611 16614 28
13292 16611 16615 28
13293 16616 16617 28
13294 16616 16618 28
13295 16616 16619 28
13296 16616 16620 28
13297 16621 16622 28
13298 16621 16623 28
13299 16621 16624 28
13300 16621 16625 28
13301 16626 16627 28
13302 16626 16628 28
13303 16626 16629 28
13304 16626 16630 28
13305 16631 16632 28
13306 16631 16633 28
13307 16631 16634 28
13308 16631 16635 28
13309 16636 16637 28
13310 16636 16638 28
13311 16636 16639 28
13312 16636 16640 28
13313 16641 16642 28
13314 16641 16643 28
13315 16641 16644 28
13316 16641 16645 28
13317 16646 16647 28
13318 16646 16648 28
13319 16646 16649 28
13320 16646 16650 28
13321 16651 16652 28
13322 16651 16653 28
13323 16651 16654 28
13324 16651 16655 28
13325 16656 16657 28
13326 16656 16658 28
13327 16656 16659 28
13328 16656 16660 28
13329 16661 16662 28
13330 16661 16663 28
13331 16661 16664 28
13332 16661 16665 28
13333 16666 16667 28
13334 16666 16668 28
13335 16666 16669 28
13336 16666 16670 28
13337 16671 16672 28
13338 16671 16673 28
13339 16671 16674 28
13340 16671 16675 28
13341 16676 16677 28
13342 16676 16678 28
13343 16676 16679 28
13344 16676 16680 28
13345 16681 16682 28
13346 16681 16683 28
13347 16681 16684 28
13348 16681 16685 28
13349 16686 16687 28
13350 16686 16688 28
13351 16686 16689 28
13352 16686 16690 28
13353 16691 16692 28
13354 16691 16693 28
13355 16691 16694 28
13356 16691 16695 28
13357 16696 16697 28
13358 16696 16698 28
13359 16696 16699 28
13360 16696 16700 28
13361 16701 16702 28
13362 16701 16703 28
13363 16701 16704 28
13364 16701 16705 28
13365 16706 16707 28
13366 16706 16708 28
13367 16706 16709 28
13368 16706 16710 28
13369 16711 16712 28
13370 16711 16713 28
13371 16711 16714 28
13372 16711 16715 28
13373 16716 16717 28
13374 16716 16718 28
13375 16716 16719 28
13376 16716 16720 28
13377 16721 16722 28
13378 16721 16723 28
13379 16721 16724 28
13380 16721 16725 28
13381 16726 16727 28
13382 16726 16728 28
13383 16726 16729 28
13384 16726 16730 28
13385 16731 16732 28
13386 16731 16733 28
13387 16731 16734 28
13388 16731 16735 28
13389 16736 16737 28
13390 16736 16738 28
13391 16736 16739 28
13392 16736 16740 28
13393 16741 16742 28
13394 16741 16743 28
13395 16741 16744 28
13396 16741 16745 28
13397 16746 16747 28
13398 16746 16748 28
13399 16746 16749 28
13400 16746 16750 28
13401 16751 16752 28
13402 16751 16753 28
13403 16751 16754 28
13404 16751 16755 28
13405 16756 16757 28
13406 16756 16758 28
13407 16756 16759 28
13408 16756 16760 28
13409 16761 16762 28
13410 16761 16763 28
13411 16761 16764 28
13412 16761 16765 28
13413 16766 16767 28
13414 16766 16768 28
13415 16766 16769 28
13416 16766 16770 28
13417 16771 16772 28
13418 16771 16773 28
13419 16771 16774 28
13420 16771 16775 28
13421 16776 16777 28
13422 16776 16778 28
13423 16776 16779 28
13424 16776 16780 28
13425 16781 16782 28
13426 16781 16783 28
13427 16781 16784 28
13428 16781 16785 28
13429 16786 16787 28
13430 16786 16788 28
13431 16786 16789 28
13432 16786 16790 28
13433 16791 16792 28
13434 16791 16793 28
13435 16791 16794 28
13436 16791 16795 28
13437 16796 16797 28
13438 16796 16798 28
13439 16796 16799 28
13440 16796 16800 28
13441 16801 16802 28
13442 16801 16803 28
13443 16801 16804 28
13444 16801 16805 28
13445 16806 16807 28
13446 16806 16808 28
13447 16806 16809 28
13448 16806 16810 28
13449 16811 16812 28
13450 16811 16813 28
13451 16811 16814 28
13452 16811 16815 28
13453 16816 16817 28
13454 16816 16818 28
13455 16816 16819 28
13456 16816 16820 28
13457 16821 16822 28
13458 16821 16823 28
13459 16821 16824 28
13460 16821 16825 28
13461 16826 16827 28
13462 16826 16828 28
13463 16826 16829 28
13464 16826 16830 28
13465 16831 16832 28
13466 16831 16833 28
13467 16831 16834 28
13468 16831 16835 28
13469 16836 16837 28
13470 16836 16838 28
13471 16836 16839 28
13472 16836 16840 28
13473 16841 16842 28
13474 16841 16843 28
13475 16841 16844 28
13476 16841 16845 28
13477 16846 16847 28
13478 16846 16848 28
13479 16846 16849 28
13480 16846 16850 28
13481 16851 16852 28
13482 16851 16853 28
13483 16851 16854 28
13484 16851 16855 28
13485 16856 16857 28
13486 16856 16858 28
13487 16856 16859 28
13488 16856 16860 28
13489 16861 16862 28
13490 16861 16863 28
13491 16861 16864 28
13492 16861 16865 28
13493 16866 16867 28
13494 16866 16868 28
13495 16866 16869 28
13496 16866 16870 28
13497 16871 16872 28
13498 16871 16873 28
13499 16871 16874 28
13500 16871 16875 28
13501 16876 16877 28
13502 16876 16878 28
13503 16876 16879 28
13504 16876 16880 28
13505 16881 16882 28
13506 16881 16883 28
13507 16881 16884 28
13508 16881 16885 28
13509 16886 16887 28
13510 16886 16888 28
13511 16886 16889 28
13512 16886 16890 28
13513 16891 16892 28
13514 16891 16893 28
13515 16891 16894 28
13516 16891 16895 28
13517 16896 16897 28
13518 16896 16898 28
13519 16896 16899 28
13520 16896 16900 28
13521 16901 16902 28
13522 16901 16903 28
13523 16901 16904 28
13524 16901 16905 28
13525 16906 16907 28
13526 16906 16908 28
13527 16906 16909 28
13528 16906 16910 28
13529 16911 16912 28
13530 16911 16913 28
13531 16911 16914 28
13532 16911 16915 28
13533 16916 16917 28
13534 16916 16918 28
13535 16916 16919 28
13536 16916 16920 28
13537 16921 16922 28
13538 16921 16923 28
13539 16921 16924 28
13540 16921 16925 28
13541 16926 16927 28
13542 16926 16928 28
13543 16926 16929 28
13544 16926 16930 28
13545 16931 16932 28
13546 16931 16933 28
13547 16931 16934 28
13548 16931 16935 28
13549 16936 16937 28
13550 16936 16938 28
13551 16936 16939 28
13552 16936 16940 28
13553 16941 16942 28
13554 16941 16943 28
13555 16941 16944 28
13556 16941 16945 28
13557 16946 16947 28
13558 16946 16948 28
13559 16946 16949 28
13560 16946 16950 28
13561 16951 16952 28
13562 16951 16953 28
13563 16951 16954 28
13564 16951 16955 28
13565 16956 16957 28
13566 16956 16958 28
13567 16956 16959 28
13568 16956 16960 28
13569 16961 16962 28
13570 16961 16963 28
13571 16961 16964 28
13572 16961 16965 28
13573 16966 16967 28
13574 16966 16968 28
13575 16966 16969 28
13576 16966 16970 28
13577 16971 16972 28
13578 16971 16973 28
13579 16971 16974 28
13580 16971 16975 28
13581 16976 16977 28
13582 16976 16978 28
13583 16976 16979 28
13584 16976 16980 28
13585 16981 16982 28
13586 16981 16983 28
13587 16981 16984 28
13588 16981 16985 28
13589 16986 16987 28
13590 16986 16988 28
13591 16986 16989 28
13592 16986 16990 28
13593 16991 16992 28
13594 16991 16993 28
13595 16991 16994 28
13596 16991 16995 28
13597 16996 16997 28
13598 16996 16998 28
13599 16996 16999 28
13600 16996 17000 28
13601 17001 17002 28
13602 17001 17003 28
13603 17001 17004 28
13604 17001 17005 28
13605 17006 17007 28
13606 17006 17008 28
13607 17006 17009 28
13608 17006 17010 28
13609 17011 17012 28
13610 17011 17013 28
13611 17011 17014 28
13612 17011 17015 28
13613 17016 17017 28
13614 17016 17018 28
13615 17016 17019 28
13616 17016 17020 28
13617 17021 17022 28
13618 17021 17023 28
13619 17021 17024 28
13620 17021 17025 28
13621 17026 17027 28
13622 17026 17028 28
13623 17026 17029 28
13624 17026 17030 28
13625 17031 17032 28
13626 17031 17033 28
13627 17031 17034 28
13628 17031 17035 28
13629 17036 17037 28
13630 17036 17038 28
13631 17036 17039 28
13632 17036 17040 28
13633 17041 17042 28
13634 17041 17043 28
13635 17041 17044 28
13636 17041 17045 28
13637 17046 17047 28
13638 17046 17048 28
13639 17046 17049 28
13640 17046 17050 28
13641 17051 17052 28
13642 17051 17053 28
13643 17051 17054 28
13644 17051 17055 28
13645 17056 17057 28
13646 17056 17058 28
13647 17056 17059 28
13648 17056 17060 28
13649 17061 17062 28
13650 17061 17063 28
13651 17061 17064 28
13652 17061 17065 28
13653 17066 17067 28
13654 17066 17068 28
13655 17066 17069 28
13656 17066 17070 28
13657 17071 17072 28
13658 17071 17073 28
13659 17071 17074 28
13660 17071 17075 28
13661 17076 17077 28
13662 17076 17078 28
13663 17076 17079 28
13664 17076 17080 28
13665 17081 17082 28
13666 17081 17083 28
13667 17081 17084 28
13668 17081 17085 28
13669 17086 17087 28
13670 17086 17088 28
13671 17086 17089 28
13672 17086 17090 28
13673 17091 17092 28
13674 17091 17093 28
13675 17091 17094 28
13676 17091 17095 28
13677 17096 17097 28
13678 17096 17098 28
13679 17096 17099 28
13680 17096 17100 28
13681 17101 17102 28
13682 17101 17103 28
13683 17101 17104 28
13684 17101 17105 28
13685 17106 17107 28
13686 17106 17108 28
13687 17106 17109 28
13688 17106 17110 28
13689 17111 17112 28
13690 17111 17113 28
13691 17111 17114 28
13692 17111 17115 28
13693 17116 17117 28
13694 17116 17118 28
13695 17116 17119 28
13696 17116 17120 28
13697 17121 17122 28
13698 17121 17123 28
13699 17121 17124 28
13700 17121 17125 28
13701 17126 17127 28
13702 17126 17128 28
13703 17126 17129 28
13704 17126 17130 28
13705 17131 17132 28
13706 17131 17133 28
13707 17131 17134 28
13708 17131 17135 28
13709 17136 17137 28
13710 17136 17138 28
13711 17136 17139 28
13712 17136 17140 28
13713 17141 17142 28
13714 17141 17143 28
13715 17141 17144 28
13716 17141 17145 28
13717 17146 17147 28
13718 17146 17148 28
13719 17146 17149 28
13720 17146 17150 28
13721 17151 17152 28
13722 17151 17153 28
13723 17151 17154 28
13724 17151 17155 28
13725 17156 17157 28
13726 17156 17158 28
13727 17156 17159 28
13728 17156 17160 28
13729 17161 17162 28
13730 17161 17163 28
13731 17161 17164 28
13732 17161 17165 28
13733 17166 17167 28
13734 17166 17168 28
13735 17166 17169 28
13736 17166 17170 28
13737 17171 17172 28
13738 17171 17173 28
13739 17171 17174 28
13740 17171 17175 28
13741 17176 17177 28
13742 17176 17178 28
13743 17176 17179 28
13744 17176 17180 28
13745 17181 17182 28
13746 17181 17183 28
13747 17181 17184 28
13748 17181 17185 28
13749 17186 17187 28
13750 17186 17188 28
13751 17186 17189 28
13752 17186 17190 28
13753 17191 17192 28
13754 17191 17193 28
13755 17191 17194 28
13756 17191 17195 28
13757 17196 17197 28
13758 17196 17198 28
13759 17196 17199 28
13760 17196 17200 28
13761 17201 17202 28
13762 17201 17203 28
13763 17201 17204 28
13764 17201 17205 28
13765 17206 17207 28
13766 17206 17208 28
13767 17206 17209 28
13768 17206 17210 28
13769 17211 17212 28
13770 17211 17213 28
13771 17211 17214 28
13772 17211 17215 28
13773 17216 17217 28
13774 17216 17218 28
13775 17216 17219 28
13776 17216 17220 28
13777 17221 17222 28
13778 17221 17223 28
13779 17221 17224 28
13780 17221 17225 28
13781 17226 17227 28
13782 17226 17228 28
13783 17226 17229 28
13784 17226 17230 28
13785 17231 17232 28
13786 17231 17233 28
13787 17231 17234 28
13788 17231 17235 28
13789 17236 17237 28
13790 17236 17238 28
13791 17236 17239 28
13792 17236 17240 28
13793 17241 17242 28
13794 17241 17243 28
13795 17241 17244 28
13796 17241 17245 28
13797 17246 17247 28
13798 17246 17248 28
13799 17246 17249 28
13800 17246 17250 28
13801 17251 17252 28
13802 17251 17253 28
13803 17251 17254 28
13804 17251 17255 28
13805 17256 17257 28
13806 17256 17258 28
13807 17256 17259 28
13808 17256 17260 28
13809 17261 17262 28
13810 17261 17263 28
13811 17261 17264 28
13812 17261 17265 28
13813 17266 17267 28
13814 17266 17268 28
13815 17266 17269 28
13816 17266 17270 28
13817 17271 17272 28
13818 17271 17273 28
13819 17271 17274 28
13820 17271 17275 28
13821 17276 17277 28
13822 17276 17278 28
13823 17276 17279 28
13824 17276 17280 28
13825 17281 17282 28
13826 17281 17283 28
13827 17281 17284 28
13828 17281 17285 28
13829 17286 17287 28
13830 17286 17288 28
13831 17286 17289 28
13832 17286 17290 28
13833 17291 17292 28
13834 17291 17293 28
13835 17291 17294 28
13836 17291 17295 28
13837 17296 17297 28
13838 17296 17298 28
13839 17296 17299 28
13840 17296 17300 28
13841 17301 17302 28
13842 17301 17303 28
13843 17301 17304 28
13844 17301 17305 28
13845 17306 17307 28
13846 17306 17308 28
13847 17306 17309 28
13848 17306 17310 28
13849 17311 17312 28
13850 17311 17313 28
13851 17311 17314 28
13852 17311 17315 28
13853 17316 17317 28
13854 17316 17318 28
13855 17316 17319 28
13856 17316 17320 28
13857 17321 17322 28
13858 17321 17323 28
13859 17321 17324 28
13860 17321 17325 28
13861 17326 17327 28
13862 17326 17328 28
13863 17326 17329 28
13864 17326 17330 28
13865 17331 17332 28
13866 17331 17333 28
13867 17331 17334 28
13868 17331 17335 28
13869 17336 17337 28
13870 17336 17338 28
13871 17336 17339 28
13872 17336 17340 28
13873 17341 17342 28
13874 17341 17343 28
13875 17341 17344 28
13876 17341 17345 28
13877 17346 17347 28
13878 17346 17348 28
13879 17346 17349 28
13880 17346 17350 28
13881 17351 17352 28
13882 17351 17353 28
13883 17351 17354 28
13884 17351 17355 28
13885 17356 17357 28
13886 17356 17358 28
13887 17356 17359 28
13888 17356 17360 28
13889 17361 17362 28
13890 17361 17363 28
13891 17361 17364 28
13892 17361 17365 28
13893 17366 17367 28
13894 17366 17368 28
13895 17366 17369 28
13896 17366 17370 28
13897 17371 17372 28
13898 17371 17373 28
13899 17371 17374 28
13900 17371 17375 28
13901 17376 17377 28
13902 17376 17378 28
13903 17376 17379 28
13904 17376 17380 28
13905 17381 17382 28
13906 17381 17383 28
13907 17381 17384 28
13908 17381 17385 28
13909 17386 17387 28
13910 17386 17388 28
13911 17386 17389 28
13912 17386 17390 28
13913 17391 17392 28
13914 17391 17393 28
13915 17391 17394 28
13916 17391 17395 28
13917 17396 17397 28
13918 17396 17398 28
13919 17396 17399 28
13920 17396 17400 28
13921 17401 17402 28
13922 17401 17403 28
13923 17401 17404 28
13924 17401 17405 28
13925 17406 17407 28
13926 17406 17408 28
13927 17406 17409 28
13928 17406 17410 28
13929 17411 17412 28
13930 17411 17413 28
13931 17411 17414 28
13932 17411 17415 28
13933 17416 17417 28
13934 17416 17418 28
13935 17416 17419 28
13936 17416 17420 28
13937 17421 17422 28
13938 17421 17423 28
13939 17421 17424 28
13940 17421 17425 28
13941 17426 17427 28
13942 17426 17428 28
13943 17426 17429 28
13944 17426 17430 28
13945 17431 17432 28
13946 17431 17433 28
13947 17431 17434 28
13948 17431 17435 28
13949 17436 17437 28
13950 17436 17438 28
13951 17436 17439 28
13952 17436 17440 28
13953 17441 17442 28
13954 17441 17443 28
13955 17441 17444 28
13956 17441 17445 28
13957 17446 17447 28
13958 17446 17448 28
13959 17446 17449 28
13960 17446 17450 28
13961 17451 17452 28
13962 17451 17453 28
13963 17451 17454 28
13964 17451 17455 28
13965 17456 17457 28
13966 17456 17458 28
13967 17456 17459 28
13968 17456 17460 28
13969 17461 17462 28
13970 17461 17463 28
13971 17461 17464 28
13972 17461 17465 28
13973 17466 17467 28
13974 17466 17468 28
13975 17466 17469 28
13976 17466 17470 28
13977 17471 17472 28
13978 17471 17473 28
13979 17471 17474 28
13980 17471 17475 28
13981 17476 17477 28
13982 17476 17478 28
13983 17476 17479 28
13984 17476 17480 28
13985 17481 17482 28
13986 17481 17483 28
13987 17481 17484 28
13988 17481 17485 28
13989 17486 17487 28
13990 17486 17488 28
13991 17486 17489 28
13992 17486 17490 28
13993 17491 17492 28
13994 17491 17493 28
13995 17491 17494 28
13996 17491 17495 28
13997 17496 17497 28
13998 17496 17498 28
13999 17496 17499 28
14000 17496 17500 28
14001 17501 17502 28
14002 17501 17503 28
14003 17501 17504 28
14004 17501 17505 28
14005 17506 17507 28
14006 17506 17508 28
14007 17506 17509 28
14008 17506 17510 28
14009 17511 17512 28
14010 17511 17513 28
14011 17511 17514 28
14012 17511 17515 28
14013 17516 17517 28
14014 17516 17518 28
14015 17516 17519 28
14016 17516 17520 28
14017 17521 17522 28
14018 17521 17523 28
14019 17521 17524 28
14020 17521 17525 28
14021 17526 17527 28
14022 17526 17528 28
14023 17526 17529 28
14024 17526 17530 28
14025 17531 17532 28
14026 17531 17533 28
14027 17531 17534 28
14028 17531 17535 28
14029 17536 17537 28
14030 17536 17538 28
14031 17536 17539 28
14032 17536 17540 28
14033 17541 17542 28
14034 17541 17543 28
14035 17541 17544 28
14036 17541 17545 28
14037 17546 17547 28
14038 17546 17548 28
14039 17546 17549 28
14040 17546 17550 28
14041 17551 17552 28
14042 17551 17553 28
14043 17551 17554 28
14044 17551 17555 28
14045 17556 17557 28
14046 17556 17558 28
14047 17556 17559 28
14048 17556 17560 28
14049 17561 17562 28
14050 17561 17563 28
14051 17561 17564 28
14052 17561 17565 28
14053 17566 17567 28
14054 17566 17568 28
14055 17566 17569 28
14056 17566 17570 28
14057 17571 17572 28
14058 17571 17573 28
14059 17571 17574 28
14060 17571 17575 28
14061 17576 17577 28
14062 17576 17578 28
14063 17576 17579 28
14064 17576 17580 28
14065 17581 17582 28
14066 17581 17583 28
14067 17581 17584 28
14068 17581 17585 28
14069 17586 17587 28
14070 17586 17588 28
14071 17586 17589 28
14072 17586 17590 28
14073 17591 17592 28
14074 17591 17593 28
14075 17591 17594 28
14076 17591 17595 28
14077 17596 17597 28
14078 17596 17598 28
14079 17596 17599 28
14080 17596 17600 28
14081 17601 17602 28
14082 17601 17603 28
14083 17601 17604 28
14084 17601 17605 28
14085 17606 17607 28
14086 17606 17608 28
14087 17606 17609 28
14088 17606 17610 28
14089 17611 17612 28
14090 17611 17613 28
14091 17611 17614 28
14092 17611 17615 28
14093 17616 17617 28
14094 17616 17618 28
14095 17616 17619 28
14096 17616 17620 28
14097 17621 17622 28
14098 17621 17623 28
14099 17621 17624 28
14100 17621 17625 28
14101 17626 17627 28
14102 17626 17628 28
14103 17626 17629 28
14104 17626 17630 28
14105 17631 17632 28
14106 17631 17633 28
14107 17631 17634 28
14108 17631 17635 28
14109 17636 17637 28
14110 17636 17638 28
14111 17636 17639 28
14112 17636 17640 28
14113 17641 17642 28
14114 17641 17643 28
14115 17641 17644 28
14116 17641 17645 28
14117 17646 17647 28
14118 17646 17648 28
14119 17646 17649 28
14120 17646 17650 28
14121 17651 17652 28
14122 17651 17653 28
14123 17651 17654 28
14124 17651 17655 28
14125 17656 17657 28
14126 17656 17658 28
14127 17656 17659 28
14128 17656 17660 28
14129 17661 17662 28
14130 17661 17663 28
14131 17661 17664 28
14132 17661 17665 28
14133 17666 17667 28
14134 17666 17668 28
14135 17666 17669 28
14136 17666 17670 28
14137 17671 17672 28
14138 17671 17673 28
14139 17671 17674 28
14140 17671 17675 28
14141 17676 17677 28
14142 17676 17678 28
14143 17676 17679 28
14144 17676 17680 28
14145 17681 17682 28
14146 17681 17683 28
14147 17681 17684 28
14148 17681 17685 28
14149 17686 17687 28
14150 17686 17688 28
14151 17686 17689 28
14152 17686 17690 28
14153 17691 17692 28
14154 17691 17693 28
14155 17691 17694 28
14156 17691 17695 28
14157 17696 17697 28
14158 17696 17698 28
14159 17696 17699 28
14160 17696 17700 28
14161 17701 17702 28
14162 17701 17703 28
14163 17701 17704 28
14164 17701 17705 28
14165 17706 17707 28
14166 17706 17708 28
14167 17706 17709 28
14168 17706 17710 28
14169 17711 17712 28
14170 17711 17713 28
14171 17711 17714 28
14172 17711 17715 28
14173 17716 17717 28
14174 17716 17718 28
14175 17716 17719 28
14176 17716 17720 28
14177 17721 17722 28
14178 17721 17723 28
14179 17721 17724 28
14180 17721 17725 28
14181 17726 17727 28
14182 17726 17728 28
14183 17726 17729 28
14184 17726 17730 28
14185 17731 17732 28
14186 17731 17733 28
14187 17731 17734 28
14188 17731 17735 28
14189 17736 17737 28
14190 17736 17738 28
14191 17736 17739 28
14192 17736 17740 28
14193 17741 17742 28
14194 17741 17743 28
14195 17741 17744 28
14196 17741 17745 28
14197 17746 17747 28
14198 17746 17748 28
14199 17746 17749 28
14200 17746 17750 28
14201 17751 17752 28
14202 17751 17753 28
14203 17751 17754 28
14204 17751 17755 28
14205 17756 17757 28
14206 17756 17758 28
14207 17756 17759 28
14208 17756 17760 28
14209 17761 17762 28
14210 17761 17763 28
14211 17761 17764 28
14212 17761 17765 28
14213 17766 17767 28
14214 17766 17768 28
14215 17766 17769 28
14216 17766 17770 28
14217 17771 17772 28
14218 17771 17773 28
14219 17771 17774 28
14220 17771 17775 28
14221 17776 17777 28
14222 17776 17778 28
14223 17776 17779 28
14224 17776 17780 28
14225 17781 17782 28
14226 17781 17783 28
14227 17781 17784 28
14228 17781 17785 28
14229 17786 17787 28
14230 17786 17788 28
14231 17786 17789 28
14232 17786 17790 28
14233 17791 17792 28
14234 17791 17793 28
14235 17791 17794 28
14236 17791 17795 28
14237 17796 17797 28
14238 17796 17798 28
14239 17796 17799 28
14240 17796 17800 28
14241 17801 17802 28
14242 17801 17803 28
14243 17801 17804 28
14244 17801 17805 28
14245 17806 17807 28
14246 17806 17808 28
14247 17806 17809 28
14248 17806 17810 28
14249 17811 17812 28
14250 17811 17813 28
14251 17811 17814 28
14252 17811 17815 28
14253 17816 17817 28
14254 17816 17818 28
14255 17816 17819 28
14256 17816 17820 28
14257 17821 17822 28
14258 17821 17823 28
14259 17821 17824 28
14260 17821 17825 28
14261 17826 17827 28
14262 17826 17828 28
14263 17826 17829 28
14264 17826 17830 28
14265 17831 17832 28
14266 17831 17833 28
14267 17831 17834 28
14268 17831 17835 28
14269 17836 17837 28
14270 17836 17838 28
14271 17836 17839 28
14272 17836 17840 28
14273 17841 17842 28
14274 17841 17843 28
14275 17841 17844 28
14276 17841 17845 28
14277 17846 17847 28
14278 17846 17848 28
14279 17846 17849 28
14280 17846 17850 28
14281 17851 17852 28
14282 17851 17853 28
14283 17851 17854 28
14284 17851 17855 28
14285 17856 17857 28
14286 17856 17858 28
14287 17856 17859 28
14288 17856 17860 28
14289 17861 17862 28
14290 17861 17863 28
14291 17861 17864 28
14292 17861 17865 28
14293 17866 17867 28
14294 17866 17868 28
14295 17866 17869 28
14296 17866 17870 28
14297 17871 17872 28
14298 17871 17873 28
14299 17871 17874 28
14300 17871 17875 28
14301 17876 17877 28
14302 17876 17878 28
14303 17876 17879 28
14304 17876 17880 28
14305 17881 17882 28
14306 17881 17883 28
14307 17881 17884 28
14308 17881 17885 28
14309 17886 17887 28
14310 17886 17888 28
14311 17886 17889 28
14312 17886 17890 28
14313 17891 17892 28
14314 17891 17893 28
14315 17891 17894 28
14316 17891 17895 28
14317 17896 17897 28
14318 17896 17898 28
14319 17896 17899 28
14320 17896 17900 28
14321 17901 17902 28
14322 17901 17903 28
14323 17901 17904 28
14324 17901 17905 28
14325 17906 17907 28
14326 17906 17908 28
14327 17906 17909 28
14328 17906 17910 28
14329 17911 17912 28
14330 17911 17913 28
14331 17911 17914 28
14332 17911 17915 28
14333 17916 17917 28
14334 17916 17918 28
14335 17916 17919 28
14336 17916 17920 28
14337 17921 17922 28
14338 17921 17923 28
14339 17921 17924 28
14340 17921 17925 28
14341 17926 17927 28
14342 17926 17928 28
14343 17926 17929 28
14344 17926 17930 28
14345 17931 17932 28
14346 17931 17933 28
14347 17931 17934 28
14348 17931 17935 28
14349 17936 17937 28
14350 17936 17938 28
14351 17936 17939 28
14352 17936 17940 28
14353 17941 17942 28
14354 17941 17943 28
14355 17941 17944 28
14356 17941 17945 28
14357 17946 17947 28
14358 17946 17948 28
14359 17946 17949 28
14360 17946 17950 28
14361 17951 17952 28
14362 17951 17953 28
14363 17951 17954 28
14364 17951 17955 28
14365 17956 17957 28
14366 17956 17958 28
14367 17956 17959 28
14368 17956 17960 28
14369 17961 17962 28
14370 17961 17963 28
14371 17961 17964 28
14372 17961 17965 28
14373 17966 17967 28
14374 17966 17968 28
14375 17966 17969 28
14376 17966 17970 28
14377 17971 17972 28
14378 17971 17973 28
14379 17971 17974 28
14380 17971 17975 28
14381 17976 17977 28
14382 17976 17978 28
14383 17976 17979 28
14384 17976 17980 28
14385 17981 17982 28
14386 17981 17983 28
14387 17981 17984 28
14388 17981 17985 28
14389 17986 17987 28
14390 17986 17988 28
14391 17986 17989 28
14392 17986 17990 28
14393 17991 17992 28
14394 17991 17993 28
14395 17991 17994 28
14396 17991 17995 28
14397 17996 17997 28
14398 17996 17998 28
14399 17996 17999 28
14400 17996 18000 28
14401 18001 18002 28
14402 18001 18003 28
14403 18001 18004 28
14404 18001 18005 28
14405 18006 18007 28
14406 18006 18008 28
14407 18006 18009 28
14408 18006 18010 28
14409 18011 18012 28
14410 18011 18013 28
14411 18011 18014 28
14412 18011 18015 28
14413 18016 18017 28
14414 18016 18018 28
14415 18016 18019 28
14416 18016 18020 28
14417 18021 18022 28
14418 18021 18023 28
14419 18021 18024 28
14420 18021 18025 28
14421 18026 18027 28
14422 18026 18028 28
14423 18026 18029 28
14424 18026 18030 28
14425 18031 18032 28
14426 18031 18033 28
14427 18031 18034 28
14428 18031 18035 28
14429 18036 18037 28
14430 18036 18038 28
14431 18036 18039 28
14432 18036 18040 28
14433 18041 18042 28
14434 18041 18043 28
14435 18041 18044 28
14436 18041 18045 28
14437 18046 18047 28
14438 18046 18048 28
14439 18046 18049 28
14440 18046 18050 28
14441 18051 18052 28
14442 18051 18053 28
14443 18051 18054 28
14444 18051 18055 28
14445 18056 18057 28
14446 18056 18058 28
14447 18056 18059 28
14448 18056 18060 28
14449 18061 18062 28
14450 18061 18063 28
14451 18061 18064 28
14452 18061 18065 28
14453 18066 18067 28
14454 18066 18068 28
14455 18066 18069 28
14456 18066 18070 28
14457 18071 18072 28
14458 18071 18073 28
14459 18071 18074 28
14460 18071 18075 28
14461 18076 18077 28
14462 18076 18078 28
14463 18076 18079 28
14464 18076 18080 28
14465 18081 18082 28
14466 18081 18083 28
14467 18081 18084 28
14468 18081 18085 28
14469 18086 18087 28
14470 18086 18088 28
14471 18086 18089 28
14472 18086 18090 28
14473 18091 18092 28
14474 18091 18093 28
14475 18091 18094 28
14476 18091 18095 28
14477 18096 18097 28
14478 18096 18098 28
14479 18096 18099 28
14480 18096 18100 28
14481 18101 18102 28
14482 18101 18103 28
14483 18101 18104 28
14484 18101 18105 28
14485 18106 18107 28
14486 18106 18108 28
14487 18106 18109 28
14488 18106 18110 28
14489 18111 18112 28
14490 18111 18113 28
14491 18111 18114 28
14492 18111 18115 28
14493 18116 18117 28
14494 18116 18118 28
14495 18116 18119 28
14496 18116 18120 28
14497 18121 18122 28
14498 18121 18123 28
14499 18121 18124 28
14500 18121 18125 28
14501 18126 18127 28
14502 18126 18128 28
14503 18126 18129 28
14504 18126 18130 28
14505 18131 18132 28
14506 18131 18133 28
14507 18131 18134 28
14508 18131 18135 28
14509 18136 18137 28
14510 18136 18138 28
14511 18136 18139 28
14512 18136 18140 28
14513 18141 18142 28
14514 18141 18143 28
14515 18141 18144 28
14516 18141 18145 28
14517 18146 18147 28
14518 18146 18148 28
14519 18146 18149 28
14520 18146 18150 28
14521 18151 18152 28
14522 18151 18153 28
14523 18151 18154 28
14524 18151 18155 28
14525 18156 18157 28
14526 18156 18158 28
14527 18156 18159 28
14528 18156 18160 28
14529 18161 18162 28
14530 18161 18163 28
14531 18161 18164 28
14532 18161 18165 28
14533 18166 18167 28
14534 18166 18168 28
14535 18166 18169 28
14536 18166 18170 28
14537 18171 18172 28
14538 18171 18173 28
14539 18171 18174 28
14540 18171 18175 28
14541 18176 18177 28
14542 18176 18178 28
14543 18176 18179 28
14544 18176 18180 28
14545 18181 18182 28
14546 18181 18183 28
14547 18181 18184 28
14548 18181 18185 28
14549 18186 18187 28
14550 18186 18188 28
14551 18186 18189 28
14552 18186 18190 28
14553 18191 18192 28
14554 18191 18193 28
14555 18191 18194 28
14556 18191 18195 28
14557 18196 18197 28
14558 18196 18198 28
14559 18196 18199 28
14560 18196 18200 28
14561 18201 18202 28
14562 18201 18203 28
14563 18201 18204 28
14564 18201 18205 28
14565 18206 18207 28
14566 18206 18208 28
14567 18206 18209 28
14568 18206 18210 28
14569 18211 18212 28
14570 18211 18213 28
14571 18211 18214 28
14572 18211 18215 28
14573 18216 18217 28
14574 18216 18218 28
14575 18216 18219 28
14576 18216 18220 28
14577 18221 18222 28
14578 18221 18223 28
14579 18221 18224 28
14580 18221 18225 28
14581 18226 18227 28
14582 18226 18228 28
14583 18226 18229 28
14584 18226 18230 28
14585 18231 18232 28
14586 18231 18233 28
14587 18231 18234 28
14588 18231 18235 28
14589 18236 18237 28
14590 18236 18238 28
14591 18236 18239 28
14592 18236 18240 28
14593 18241 18242 28
14594 18241 18243 28
14595 18241 18244 28
14596 18241 18245 28
14597 18246 18247 28
14598 18246 18248 28
14599 18246 18249 28
14600 18246 18250 28
14601 18251 18252 28
14602 18251 18253 28
14603 18251 18254 28
14604 18251 18255 28
14605 18256 18257 28
14606 18256 18258 28
14607 18256 18259 28
14608 18256 18260 28
14609 18261 18262 28
14610 18261 18263 28
14611 18261 18264 28
14612 18261 18265 28
14613 18266 18267 28
14614 18266 18268 28
14615 18266 18269 28
14616 18266 18270 28
14617 18271 18272 28
14618 18271 18273 28
14619 18271 18274 28
14620 18271 18275 28
14621 18276 18277 28
14622 18276 18278 28
14623 18276 18279 28
14624 18276 18280 28
14625 18281 18282 28
14626 18281 18283 28
14627 18281 18284 28
14628 18281 18285 28
14629 18286 18287 28
14630 18286 18288 28
14631 18286 18289 28
14632 18286 18290 28
14633 18291 18292 28
14634 18291 18293 28
14635 18291 18294 28
14636 18291 18295 28
14637 18296 18297 28
14638 18296 18298 28
14639 18296 18299 28
14640 18296 18300 28
14641 18301 18302 28
14642 18301 18303 28
14643 18301 18304 28
14644 18301 18305 28
14645 18306 18307 28
14646 18306 18308 28
14647 18306 18309 28
14648 18306 18310 28
14649 18311 18312 28
14650 18311 18313 28
14651 18311 18314 28
14652 18311 18315 28
14653 18316 18317 28
14654 18316 18318 28
14655 18316 18319 28
14656 18316 18320 28
14657 18321 18322 28
14658 18321 18323 28
14659 18321 18324 28
14660 18321 18325 28
14661 18326 18327 28
14662 18326 18328 28
14663 18326 18329 28
14664 18326 18330 28
14665 18331 18332 28
14666 18331 18333 28
14667 18331 18334 28
14668 18331 18335 28
14669 18336 18337 28
14670 18336 18338 28
14671 18336 18339 28
14672 18336 18340 28
14673 18341 18342 28
14674 18341 18343 28
14675 18341 18344 28
14676 18341 18345 28
14677 18346 18347 28
14678 18346 18348 28
14679 18346 18349 28
14680 18346 18350 28
14681 18351 18352 28
14682 18351 18353 28
14683 18351 18354 28
14684 18351 18355 28
14685 18356 18357 28
14686 18356 18358 28
14687 18356 18359 28
14688 18356 18360 28
14689 18361 18362 28
14690 18361 18363 28
14691 18361 18364 28
14692 18361 18365 28
14693 18366 18367 28
14694 18366 18368 28
14695 18366 18369 28
14696 18366 18370 28
14697 18371 18372 28
14698 18371 18373 28
14699 18371 18374 28
14700 18371 18375 28
14701 18376 18377 28
14702 18376 18378 28
14703 18376 18379 28
14704 18376 18380 28
14705 18381 18382 28
14706 18381 18383 28
14707 18381 18384 28
14708 18381 18385 28
14709 18386 18387 28
14710 18386 18388 28
14711 18386 18389 28
14712 18386 18390 28
14713 18391 18392 28
14714 18391 18393 28
14715 18391 18394 28
14716 18391 18395 28
14717 18396 18397 28
14718 18396 18398 28
14719 18396 18399 28
14720 18396 18400 28
14721 18401 18402 28
14722 18401 18403 28
14723 18401 18404 28
14724 18401 18405 28
14725 18406 18407 28
14726 18406 18408 28
14727 18406 18409 28
14728 18406 18410 28
14729 18411 18412 28
14730 18411 18413 28
14731 18411 18414 28
14732 18411 18415 28
14733 18416 18417 28
14734 18416 18418 28
14735 18416 18419 28
14736 18416 18420 28
14737 18421 18422 28
14738 18421 18423 28
14739 18421 18424 28
14740 18421 18425 28
14741 18426 18427 28
14742 18426 18428 28
14743 18426 18429 28
14744 18426 18430 28
14745 18431 18432 28
14746 18431 18433 28
14747 18431 18434 28
14748 18431 18435 28
14749 18436 18437 28
14750 18436 18438 28
14751 18436 18439 28
14752 18436 18440 28
14753 18441 18442 28
14754 18441 18443 28
14755 18441 18444 28
14756 18441 18445 28
14757 18446 18447 28
14758 18446 18448 28
14759 18446 18449 28
14760 18446 18450 28
14761 18451 18452 28
14762 18451 18453 28
14763 18451 18454 28
14764 18451 18455 28
14765 18456 18457 28
14766 18456 18458 28
14767 18456 18459 28
14768 18456 18460 28
14769 18461 18462 28
14770 18461 18463 28
14771 18461 18464 28
14772 18461 18465 28
14773 18466 18467 28
14774 18466 18468 28
14775 18466 18469 28
14776 18466 18470 28
14777 18471 18472 28
14778 18471 18473 28
14779 18471 18474 28
14780 18471 18475 28
14781 18476 18477 28
14782 18476 18478 28
14783 18476 18479 28
14784 18476 18480 28
14785 18481 18482 28
14786 18481 18483 28
14787 18481 18484 28
14788 18481 18485 28
14789 18486 18487 28
14790 18486 18488 28
14791 18486 18489 28
14792 18486 18490 28
14793 18491 18492 28
14794 18491 18493 28
14795 18491 18494 28
14796 18491 18495 28
14797 18496 18497 28
14798 18496 18498 28
14799 18496 18499 28
14800 18496 18500 28
14801 18501 18502 28
14802 18501 18503 28
14803 18501 18504 28
14804 18501 18505 28
14805 18506 18507 28
14806 18506 18508 28
14807 18506 18509 28
14808 18506 18510 28
14809 18511 18512 28
14810 18511 18513 28
14811 18511 18514 28
14812 18511 18515 28
14813 18516 18517 28
14814 18516 18518 28
14815 18516 18519 28
14816 18516 18520 28
14817 18521 18522 28
14818 18521 18523 28
14819 18521 18524 28
14820 18521 18525 28
14821 18526 18527 28
14822 18526 18528 28
14823 18526 18529 28
14824 18526 18530 28
14825 18531 18532 28
14826 18531 18533 28
14827 18531 18534 28
14828 18531 18535 28
14829 18536 18537 28
14830 18536 18538 28
14831 18536 18539 28
14832 18536 18540 28
14833 18541 18542 28
14834 18541 18543 28
14835 18541 18544 28
14836 18541 18545 28
14837 18546 18547 28
14838 18546 18548 28
14839 18546 18549 28
14840 18546 18550 28
14841 18551 18552 28
14842 18551 18553 28
14843 18551 18554 28
14844 18551 18555 28
14845 18556 18557 28
14846 18556 18558 28
14847 18556 18559 28
14848 18556 18560 28
14849 18561 18562 28
14850 18561 18563 28
14851 18561 18564 28
14852 18561 18565 28
14853 18566 18567 28
14854 18566 18568 28
14855 18566 18569 28
14856 18566 18570 28
14857 18571 18572 28
14858 18571 18573 28
14859 18571 18574 28
14860 18571 18575 28
14861 18576 18577 28
14862 18576 18578 28
14863 18576 18579 28
14864 18576 18580 28
14865 18581 18582 28
14866 18581 18583 28
14867 18581 18584 28
14868 18581 18585 28
14869 18586 18587 28
14870 18586 18588 28
14871 18586 18589 28
14872 18586 18590 28
14873 18591 18592 28
14874 18591 18593 28
14875 18591 18594 28
14876 18591 18595 28
14877 18596 18597 28
14878 18596 18598 28
14879 18596 18599 28
14880 18596 18600 28
14881 18601 18602 28
14882 18601 18603 28
14883 18601 18604 28
14884 18601 18605 28
14885 18606 18607 28
14886 18606 18608 28
14887 18606 18609 28
14888 18606 18610 28
14889 18611 18612 28
14890 18611 18613 28
14891 18611 18614 28
14892 18611 18615 28
14893 18616 18617 28
14894 18616 18618 28
14895 18616 18619 28
14896 18616 18620 28
14897 18621 18622 28
14898 18621 18623 28
14899 18621 18624 28
14900 18621 18625 28
14901 18626 18627 28
14902 18626 18628 28
14903 18626 18629 28
14904 18626 18630 28
14905 18631 18632 28
14906 18631 18633 28
14907 18631 18634 28
14908 18631 18635 28
14909 18636 18637 28
14910 18636 18638 28
14911 18636 18639 28
14912 18636 18640 28
14913 18641 18642 28
14914 18641 18643 28
14915 18641 18644 28
14916 18641 18645 28
14917 18646 18647 28
14918 18646 18648 28
14919 18646 18649 28
14920 18646 18650 28
14921 18651 18652 28
14922 18651 18653 28
14923 18651 18654 28
14924 18651 18655 28
14925 18656 18657 28
14926 18656 18658 28
14927 18656 18659 28
14928 18656 18660 28
14929 18661 18662 28
14930 18661 18663 28
14931 18661 18664 28
14932 18661 18665 28
14933 18666 18667 28
14934 18666 18668 28
14935 18666 18669 28
14936 18666 18670 28
14937 18671 18672 28
14938 18671 18673 28
14939 18671 18674 28
14940 18671 18675 28
14941 18676 18677 28
14942 18676 18678 28
14943 18676 18679 28
14944 18676 18680 28
14945 18681 18682 28
14946 18681 18683 28
14947 18681 18684 28
14948 18681 18685 28
14949 18686 18687 28
14950 18686 18688 28
14951 18686 18689 28
14952 18686 18690 28
14953 18691 18692 28
14954 18691 18693 28
14955 18691 18694 28
14956 18691 18695 28
14957 18696 18697 28
14958 18696 18698 28
14959 18696 18699 28
14960 18696 18700 28
14961 18701 18702 28
14962 18701 18703 28
14963 18701 18704 28
14964 18701 18705 28
14965 18706 18707 28
14966 18706 18708 28
14967 18706 18709 28
14968 18706 18710 28
14969 18711 18712 28
14970 18711 18713 28
14971 18711 18714 28
14972 18711 18715 28
14973 18716 18717 28
14974 18716 18718 28
14975 18716 18719 28
14976 18716 18720 28
14977 18721 18722 28
14978 18721 18723 28
14979 18721 18724 28
14980 18721 18725 28
14981 18726 18727 28
14982 18726 18728 28
14983 18726 18729 28
14984 18726 18730 28
14985 18731 18732 28
14986 18731 18733 28
14987 18731 18734 28
14988 18731 18735 28
14989 18736 18737 28
14990 18736 18738 28
14991 18736 18739 28
14992 18736 18740 28
14993 18741 18742 28
14994 18741 18743 28
14995 18741 18744 28
14996 18741 18745 28
14997 18746 18747 28
14998 18746 18748 28
14999 18746 18749 28
15000 18746 18750 28
15001 18751 18752 28
15002 18751 18753 28
15003 18751 18754 28
15004 18751 18755 28
15005 18756 18757 28
15006 18756 18758 28
15007 18756 18759 28
15008 18756 18760 28
15009 18761 18762 28
15010 18761 18763 28
15011 18761 18764 28
15012 18761 18765 28
15013 18766 18767 28
15014 18766 18768 28
15015 18766 18769 28
15016 18766 18770 28
15017 18771 18772 28
15018 18771 18773 28
15019 18771 18774 28
15020 18771 18775 28
15021 18776 18777 28
15022 18776 18778 28
15023 18776 18779 28
15024 18776 18780 28
15025 18781 18782 28
15026 18781 18783 28
15027 18781 18784 28
15028 18781 18785 28
15029 18786 18787 28
15030 18786 18788 28
15031 18786 18789 28
15032 18786 18790 28
15033 18791 18792 28
15034 18791 18793 28
15035 18791 18794 28
15036 18791 18795 28
15037 18796 18797 28
15038 18796 18798 28
15039 18796 18799 28
15040 18796 18800 28
15041 18801 18802 28
15042 18801 18803 28
15043 18801 18804 28
15044 18801 18805 28
15045 18806 18807 28
15046 18806 18808 28
15047 18806 18809 28
15048 18806 18810 28
15049 18811 18812 28
15050 18811 18813 28
15051 18811 18814 28
15052 18811 18815 28
15053 18816 18817 28
15054 18816 18818 28
15055 18816 18819 28
15056 18816 18820 28
15057 18821 18822 28
15058 18821 18823 28
15059 18821 18824 28
15060 18821 18825 28
15061 18826 18827 28
15062 18826 18828 28
15063 18826 18829 28
15064 18826 18830 28
15065 18831 18832 28
15066 18831 18833 28
15067 18831 18834 28
15068 18831 18835 28
15069 18836 18837 28
15070 18836 18838 28
15071 18836 18839 28
15072 18836 18840 28
15073 18841 18842 28
15074 18841 18843 28
15075 18841 18844 28
15076 18841 18845 28
15077 18846 18847 28
15078 18846 18848 28
15079 18846 18849 28
15080 18846 18850 28
15081 18851 18852 28
15082 18851 18853 28
15083 18851 18854 28
15084 18851 18855 28
15085 18856 18857 28
15086 18856 18858 28
15087 18856 18859 28
15088 18856 18860 28
15089 18861 18862 28
15090 18861 18863 28
15091 18861 18864 28
15092 18861 18865 28
15093 18866 18867 28
15094 18866 18868 28
15095 18866 18869 28
15096 18866 18870 28
15097 18871 18872 28
15098 18871 18873 28
15099 18871 18874 28
15100 18871 18875 28
15101 18876 18877 28
15102 18876 18878 28
15103 18876 18879 28
15104 18876 18880 28
15105 18881 18882 28
15106 18881 18883 28
15107 18881 18884 28
15108 18881 18885 28
15109 18886 18887 28
15110 18886 18888 28
15111 18886 18889 28
15112 18886 18890 28
15113 18891 18892 28
15114 18891 18893 28
15115 18891 18894 28
15116 18891 18895 28
15117 18896 18897 28
15118 18896 18898 28
15119 18896 18899 28
15120 18896 18900 28
15121 18901 18902 28
15122 18901 18903 28
15123 18901 18904 28
15124 18901 18905 28
15125 18906 18907 28
15126 18906 18908 28
15127 18906 18909 28
15128 18906 18910 28
15129 18911 18912 28
15130 18911 18913 28
15131 18911 18914 28
15132 18911 18915 28
15133 18916 18917 28
15134 18916 18918 28
15135 18916 18919 28
15136 18916 18920 28
15137 18921 18922 28
15138 18921 18923 28
15139 18921 18924 28
15140 18921 18925 28
15141 18926 18927 28
15142 18926 18928 28
15143 18926 18929 28
15144 18926 18930 28
15145 18931 18932 28
15146 18931 18933 28
15147 18931 18934 28
15148 18931 18935 28
15149 18936 18937 28
15150 18936 18938 28
15151 18936 18939 28
15152 18936 18940 28
15153 18941 18942 28
15154 18941 18943 28
15155 18941 18944 28
15156 18941 18945 28
15157 18946 18947 28
15158 18946 18948 28
15159 18946 18949 28
15160 18946 18950 28
15161 18951 18952 28
15162 18951 18953 28
15163 18951 18954 28
15164 18951 18955 28
15165 18956 18957 28
15166 18956 18958 28
15167 18956 18959 28
15168 18956 18960 28
15169 18961 18962 28
15170 18961 18963 28
15171 18961 18964 28
15172 18961 18965 28
15173 18966 18967 28
15174 18966 18968 28
15175 18966 18969 28
15176 18966 18970 28
15177 18971 18972 28
15178 18971 18973 28
15179 18971 18974 28
15180 18971 18975 28
15181 18976 18977 28
15182 18976 18978 28
15183 18976 18979 28
15184 18976 18980 28
15185 18981 18982 28
15186 18981 18983 28
15187 18981 18984 28
15188 18981 18985 28
15189 18986 18987 28
15190 18986 18988 28
15191 18986 18989 28
15192 18986 18990 28
15193 18991 18992 28
15194 18991 18993 28
15195 18991 18994 28
15196 18991 18995 28
15197 18996 18997 28
15198 18996 18998 28
15199 18996 18999 28
15200 18996 19000 28
15201 19001 19002 28
15202 19001 19003 28
15203 19001 19004 28
15204 19001 19005 28
15205 19006 19007 28
15206 19006 19008 28
15207 19006 19009 28
15208 19006 19010 28
15209 19011 19012 28
15210 19011 19013 28
15211 19011 19014 28
15212 19011 19015 28
15213 19016 19017 28
15214 19016 19018 28
15215 19016 19019 28
15216 19016 19020 28
15217 19021 19022 28
15218 19021 19023 28
15219 19021 19024 28
15220 19021 19025 28
15221 19026 19027 28
15222 19026 19028 28
15223 19026 19029 28
15224 19026 19030 28
15225 19031 19032 28
15226 19031 19033 28
15227 19031 19034 28
15228 19031 19035 28
15229 19036 19037 28
15230 19036 19038 28
15231 19036 19039 28
15232 19036 19040 28
15233 19041 19042 28
15234 19041 19043 28
15235 19041 19044 28
15236 19041 19045 28
15237 19046 19047 28
15238 19046 19048 28
15239 19046 19049 28
15240 19046 19050 28
15241 19051 19052 28
15242 19051 19053 28
15243 19051 19054 28
15244 19051 19055 28
15245 19056 19057 28
15246 19056 19058 28
15247 19056 19059 28
15248 19056 19060 28
15249 19061 19062 28
15250 19061 19063 28
15251 19061 19064 28
15252 19061 19065 28
15253 19066 19067 28
15254 19066 19068 28
15255 19066 19069 28
15256 19066 19070 28
15257 19071 19072 28
15258 19071 19073 28
15259 19071 19074 28
15260 19071 19075 28
15261 19076 19077 28
15262 19076 19078 28
15263 19076 19079 28
15264 19076 19080 28
15265 19081 19082 28
15266 19081 19083 28
15267 19081 19084 28
15268 19081 19085 28
15269 19086 19087 28
15270 19086 19088 28
15271 19086 19089 28
15272 19086 19090 28
15273 19091 19092 28
15274 19091 19093 28
15275 19091 19094 28
15276 19091 19095 28
15277 19096 19097 28
15278 19096 19098 28
15279 19096 19099 28
15280 19096 19100 28
15281 19101 19102 28
15282 19101 19103 28
15283 19101 19104 28
15284 19101 19105 28
15285 19106 19107 28
15286 19106 19108 28
15287 19106 19109 28
15288 19106 19110 28
15289 19111 19112 28
15290 19111 19113 28
15291 19111 19114 28
15292 19111 19115 28
15293 19116 19117 28
15294 19116 19118 28
15295 19116 19119 28
15296 19116 19120 28
15297 19121 19122 28
15298 19121 19123 28
15299 19121 19124 28
15300 19121 19125 28
15301 19126 19127 28
15302 19126 19128 28
15303 19126 19129 28
15304 19126 19130 28
15305 19131 19132 28
15306 19131 19133 28
15307 19131 19134 28
15308 19131 19135 28
15309 19136 19137 28
15310 19136 19138 28
15311 19136 19139 28
15312 19136 19140 28
15313 19141 19142 28
15314 19141 19143 28
15315 19141 19144 28
15316 19141 19145 28
15317 19146 19147 28
15318 19146 19148 28
15319 19146 19149 28
15320 19146 19150 28
15321 19151 19152 28
15322 19151 19153 28
15323 19151 19154 28
15324 19151 19155 28
15325 19156 19157 28
15326 19156 19158 28
15327 19156 19159 28
15328 19156 19160 28
15329 19161 19162 28
15330 19161 19163 28
15331 19161 19164 28
15332 19161 19165 28
15333 19166 19167 28
15334 19166 19168 28
15335 19166 19169 28
15336 19166 19170 28
15337 19171 19172 28
15338 19171 19173 28
15339 19171 19174 28
15340 19171 19175 28
15341 19176 19177 28
15342 19176 19178 28
15343 19176 19179 28
15344 19176 19180 28
15345 19181 19182 28
15346 19181 19183 28
15347 19181 19184 28
15348 19181 19185 28
15349 19186 19187 28
15350 19186 19188 28
15351 19186 19189 28
15352 19186 19190 28
15353 19191 19192 28
15354 19191 19193 28
15355 19191 19194 28
15356 19191 19195 28
15357 19196 19197 28
15358 19196 19198 28
15359 19196 19199 28
15360 19196 19200 28
15361 19201 19202 28
15362 19201 19203 28
15363 19201 19204 28
15364 19201 19205 28
15365 19206 19207 28
15366 19206 19208 28
15367 19206 19209 28
15368 19206 19210 28
15369 19211 19212 28
15370 19211 19213 28
15371 19211 19214 28
15372 19211 19215 28
15373 19216 19217 28
15374 19216 19218 28
15375 19216 19219 28
15376 19216 19220 28
15377 19221 19222 28
15378 19221 19223 28
15379 19221 19224 28
15380 19221 19225 28
15381 19226 19227 28
15382 19226 19228 28
15383 19226 19229 28
15384 19226 19230 28
15385 19231 19232 28
15386 19231 19233 28
15387 19231 19234 28
15388 19231 19235 28
15389 19236 19237 28
15390 19236 19238 28
15391 19236 19239 28
15392 19236 19240 28
15393 19241 19242 28
15394 19241 19243 28
15395 19241 19244 28
15396 19241 19245 28
15397 19246 19247 28
15398 19246 19248 28
15399 19246 19249 28
15400 19246 19250 28
15401 19251 19252 28
15402 19251 19253 28
15403 19251 19254 28
15404 19251 19255 28
15405 19256 19257 28
15406 19256 19258 28
15407 19256 19259 28
15408 19256 19260 28
15409 19261 19262 28
15410 19261 19263 28
15411 19261 19264 28
15412 19261 19265 28
15413 19266 19267 28
15414 19266 19268 28
15415 19266 19269 28
15416 19266 19270 28
15417 19271 19272 28
15418 19271 19273 28
15419 19271 19274 28
15420 19271 19275 28
15421 19276 19277 28
15422 19276 19278 28
15423 19276 19279 28
15424 19276 19280 28
15425 19281 19282 28
15426 19281 19283 28
15427 19281 19284 28
15428 19281 19285 28
15429 19286 19287 28
15430 19286 19288 28
15431 19286 19289 28
15432 19286 19290 28
15433 19291 19292 28
15434 19291 19293 28
15435 19291 19294 28
15436 19291 19295 28
15437 19296 19297 28
15438 19296 19298 28
15439 19296 19299 28
15440 19296 19300 28
15441 19301 19302 28
15442 19301 19303 28
15443 19301 19304 28
15444 19301 19305 28
15445 19306 19307 28
15446 19306 19308 28
15447 19306 19309 28
15448 19306 19310 28
15449 19311 19312 28
15450 19311 19313 28
15451 19311 19314 28
15452 19311 19315 28
15453 19316 19317 28
15454 19316 19318 28
15455 19316 19319 28
15456 19316 19320 28
15457 19321 19322 28
15458 19321 19323 28
15459 19321 19324 28
15460 19321 19325 28
15461 19326 19327 28
15462 19326 19328 28
15463 19326 19329 28
15464 19326 19330 28
15465 19331 19332 28
15466 19331 19333 28
15467 19331 19334 28
15468 19331 19335 28
15469 19336 19337 28
15470 19336 19338 28
15471 19336 19339 28
15472 19336 19340 28
15473 19341 19342 28
15474 19341 19343 28
15475 19341 19344 28
15476 19341 19345 28
15477 19346 19347 28
15478 19346 19348 28
15479 19346 19349 28
15480 19346 19350 28
15481 19351 19352 28
15482 19351 19353 28
15483 19351 19354 28
15484 19351 19355 28
15485 19356 19357 28
15486 19356 19358 28
15487 19356 19359 28
15488 19356 19360 28
15489 19361 19362 28
15490 19361 19363 28
15491 19361 19364 28
15492 19361 19365 28
15493 19366 19367 28
15494 19366 19368 28
15495 19366 19369 28
15496 19366 19370 28
15497 19371 19372 28
15498 19371 19373 28
15499 19371 19374 28
15500 19371 19375 28
15501 19376 19377 28
15502 19376 19378 28
15503 19376 19379 28
15504 19376 19380 28
15505 19381 19382 28
15506 19381 19383 28
15507 19381 19384 28
15508 19381 19385 28
15509 19386 19387 28
15510 19386 19388 28
15511 19386 19389 28
15512 19386 19390 28
15513 19391 19392 28
15514 19391 19393 28
15515 19391 19394 28
15516 19391 19395 28
15517 19396 19397 28
15518 19396 19398 28
15519 19396 19399 28
15520 19396 19400 28
15521 19401 19402 28
15522 19401 19403 28
15523 19401 19404 28
15524 19401 19405 28
15525 19406 19407 28
15526 19406 19408 28
15527 19406 19409 28
15528 19406 19410 28
15529 19411 19412 28
15530 19411 19413 28
15531 19411 19414 28
15532 19411 19415 28
15533 19416 19417 28
15534 19416 19418 28
15535 19416 19419 28
15536 19416 19420 28
15537 19421 19422 28
15538 19421 19423 28
15539 19421 19424 28
15540 19421 19425 28
15541 19426 19427 28
15542 19426 19428 28
15543 19426 19429 28
15544 19426 19430 28
15545 19431 19432 28
15546 19431 19433 28
15547 19431 19434 28
15548 19431 19435 28
15549 19436 19437 28
15550 19436 19438 28
15551 19436 19439 28
15552 19436 19440 28
15553 19441 19442 28
15554 19441 19443 28
15555 19441 19444 28
15556 19441 19445 28
15557 19446 19447 28
15558 19446 19448 28
15559 19446 19449 28
15560 19446 19450 28
15561 19451 19452 28
15562 19451 19453 28
15563 19451 19454 28
15564 19451 19455 28
15565 19456 19457 28
15566 19456 19458 28
15567 19456 19459 28
15568 19456 19460 28
15569 19461 19462 28
15570 19461 19463 28
15571 19461 19464 28
15572 19461 19465 28
15573 19466 19467 28
15574 19466 19468 28
15575 19466 19469 28
15576 19466 19470 28
15577 19471 19472 28
15578 19471 19473 28
15579 19471 19474 28
15580 19471 19475 28
15581 19476 19477 28
15582 19476 19478 28
15583 19476 19479 28
15584 19476 19480 28
15585 19481 19482 28
15586 19481 19483 28
15587 19481 19484 28
15588 19481 19485 28
15589 19486 19487 28
15590 19486 19488 28
15591 19486 19489 28
15592 19486 19490 28
15593 19491 19492 28
15594 19491 19493 28
15595 19491 19494 28
15596 19491 19495 28
15597 19496 19497 28
15598 19496 19498 28
15599 19496 19499 28
15600 19496 19500 28
15601 19501 19502 28
15602 19501 19503 28
15603 19501 19504 28
15604 19501 19505 28
15605 19506 19507 28
15606 19506 19508 28
15607 19506 19509 28
15608 19506 19510 28
15609 19511 19512 28
15610 19511 19513 28
15611 19511 19514 28
15612 19511 19515 28
15613 19516 19517 28
15614 19516 19518 28
15615 19516 19519 28
15616 19516 19520 28
15617 19521 19522 28
15618 19521 19523 28
15619 19521 19524 28
15620 19521 19525 28
15621 19526 19527 28
15622 19526 19528 28
15623 19526 19529 28
15624 19526 19530 28
15625 19531 19532 28
15626 19531 19533 28
15627 19531 19534 28
15628 19531 19535 28
15629 19536 19537 28
15630 19536 19538 28
15631 19536 19539 28
15632 19536 19540 28
15633 19541 19542 28
15634 19541 19543 28
15635 19541 19544 28
15636 19541 19545 28
15637 19546 19547 28
15638 19546 19548 28
15639 19546 19549 28
15640 19546 19550 28
15641 19551 19552 28
15642 19551 19553 28
15643 19551 19554 28
15644 19551 19555 28
15645 19556 19557 28
15646 19556 19558 28
15647 19556 19559 28
15648 19556 19560 28
15649 19561 19562 28
15650 19561 19563 28
15651 19561 19564 28
15652 19561 19565 28
15653 19566 19567 28
15654 19566 19568 28
15655 19566 19569 28
15656 19566 19570 28
15657 19571 19572 28
15658 19571 19573 28
15659 19571 19574 28
15660 19571 19575 28
15661 19576 19577 28
15662 19576 19578 28
15663 19576 19579 28
15664 19576 19580 28
15665 19581 19582 28
15666 19581 19583 28
15667 19581 19584 28
15668 19581 19585 28
15669 19586 19587 28
15670 19586 19588 28
15671 19586 19589 28
15672 19586 19590 28
15673 19591 19592 28
15674 19591 19593 28
15675 19591 19594 28
15676 19591 19595 28
15677 19596 19597 28
15678 19596 19598 28
15679 19596 19599 28
15680 19596 19600 28
15681 19601 19602 28
15682 19601 19603 28
15683 19601 19604 28
15684 19601 19605 28
15685 19606 19607 28
15686 19606 19608 28
15687 19606 19609 28
15688 19606 19610 28
15689 19611 19612 28
15690 19611 19613 28
15691 19611 19614 28
15692 19611 19615 28
15693 19616 19617 28
15694 19616 19618 28
15695 19616 19619 28
15696 19616 19620 28
15697 19621 19622 28
15698 19621 19623 28
15699 19621 19624 28
15700 19621 19625 28
15701 19626 19627 28
15702 19626 19628 28
15703 19626 19629 28
15704 19626 19630 28
15705 19631 19632 28
15706 19631 19633 28
15707 19631 19634 28
15708 19631 19635 28
15709 19636 19637 28
15710 19636 19638 28
15711 19636 19639 28
15712 19636 19640 28
15713 19641 19642 28
15714 19641 19643 28
15715 19641 19644 28
15716 19641 19645 28
15717 19646 19647 28
15718 19646 19648 28
15719 19646 19649 28
15720 19646 19650 28
15721 19651 19652 28
15722 19651 19653 28
15723 19651 19654 28
15724 19651 19655 28
15725 19656 19657 28
15726 19656 19658 28
15727 19656 19659 28
15728 19656 19660 28
15729 19661 19662 28
15730 19661 19663 28
15731 19661 19664 28
15732 19661 19665 28
15733 19666 19667 28
15734 19666 19668 28
15735 19666 19669 28
15736 19666 19670 28
15737 19671 19672 28
15738 19671 19673 28
15739 19671 19674 28
15740 19671 19675 28
15741 19676 19677 28
15742 19676 19678 28
15743 19676 19679 28
15744 19676 19680 28
15745 19681 19682 28
15746 19681 19683 28
15747 19681 19684 28
15748 19681 19685 28
15749 19686 19687 28
15750 19686 19688 28
15751 19686 19689 28
15752 19686 19690 28
15753 19691 19692 28
15754 19691 19693 28
15755 19691 19694 28
15756 19691 19695 28
15757 19696 19697 28
15758 19696 19698 28
15759 19696 19699 28
15760 19696 19700 28
15761 19701 19702 28
15762 19701 19703 28
15763 19701 19704 28
15764 19701 19705 28
15765 19706 19707 28
15766 19706 19708 28
15767 19706 19709 28
15768 19706 19710 28
15769 19711 19712 28
15770 19711 19713 28
15771 19711 19714 28
15772 19711 19715 28
15773 19716 19717 28
15774 19716 19718 28
15775 19716 19719 28
15776 19716 19720 28
15777 19721 19722 28
15778 19721 19723 28
15779 19721 19724 28
15780 19721 19725 28
15781 19726 19727 28
15782 19726 19728 28
15783 19726 19729 28
15784 19726 19730 28
15785 19731 19732 28
15786 19731 19733 28
15787 19731 19734 28
15788 19731 19735 28
15789 19736 19737 28
15790 19736 19738 28
15791 19736 19739 28
15792 19736 19740 28
15793 19741 19742 28
15794 19741 19743 28
15795 19741 19744 28
15796 19741 19745 28
15797 19746 19747 28
15798 19746 19748 28
15799 19746 19749 28
15800 19746 19750 28
15801 19751 19752 28
15802 19751 19753 28
15803 19751 19754 28
15804 19751 19755 28
15805 19756 19757 28
15806 19756 19758 28
15807 19756 19759 28
15808 19756 19760 28
15809 19761 19762 28
15810 19761 19763 28
15811 19761 19764 28
15812 19761 19765 28
15813 19766 19767 28
15814 19766 19768 28
15815 19766 19769 28
15816 19766 19770 28
15817 19771 19772 28
15818 19771 19773 28
15819 19771 19774 28
15820 19771 19775 28
15821 19776 19777 28
15822 19776 19778 28
15823 19776 19779 28
15824 19776 19780 28
15825 19781 19782 28
15826 19781 19783 28
15827 19781 19784 28
15828 19781 19785 28
15829 19786 19787 28
15830 19786 19788 28
15831 19786 19789 28
15832 19786 19790 28
15833 19791 19792 28
15834 19791 19793 28
15835 19791 19794 28
15836 19791 19795 28
15837 19796 19797 28
15838 19796 19798 28
15839 19796 19799 28
15840 19796 19800 28
15841 19801 19802 28
15842 19801 19803 28
15843 19801 19804 28
15844 19801 19805 28
15845 19806 19807 28
15846 19806 19808 28
15847 19806 19809 28
15848 19806 19810 28
15849 19811 19812 28
15850 19811 19813 28
15851 19811 19814 28
15852 19811 19815 28
15853 19816 19817 28
15854 19816 19818 28
15855 19816 19819 28
15856 19816 19820 28
15857 19821 19822 28
15858 19821 19823 28
15859 19821 19824 28
15860 19821 19825 28
15861 19826 19827 28
15862 19826 19828 28
15863 19826 19829 28
15864 19826 19830 28
15865 19831 19832 28
15866 19831 19833 28
15867 19831 19834 28
15868 19831 19835 28
15869 19836 19837 28
15870 19836 19838 28
15871 19836 19839 28
15872 19836 19840 28
15873 19841 19842 28
15874 19841 19843 28
15875 19841 19844 28
15876 19841 19845 28
15877 19846 19847 28
15878 19846 19848 28
15879 19846 19849 28
15880 19846 19850 28
15881 19851 19852 28
15882 19851 19853 28
15883 19851 19854 28
15884 19851 19855 28
15885 19856 19857 28
15886 19856 19858 28
15887 19856 19859 28
15888 19856 19860 28
15889 19861 19862 28
15890 19861 19863 28
15891 19861 19864 28
15892 19861 19865 28
15893 19866 19867 28
15894 19866 19868 28
15895 19866 19869 28
15896 19866 19870 28
15897 19871 19872 28
15898 19871 19873 28
15899 19871 19874 28
15900 19871 19875 28
15901 19876 19877 28
15902 19876 19878 28
15903 19876 19879 28
15904 19876 19880 28
15905 19881 19882 28
15906 19881 19883 28
15907 19881 19884 28
15908 19881 19885 28
15909 19886 19887 28
15910 19886 19888 28
15911 19886 19889 28
15912 19886 19890 28
15913 19891 19892 28
15914 19891 19893 28
15915 19891 19894 28
15916 19891 19895 28
15917 19896 19897 28
15918 19896 19898 28
15919 19896 19899 28
15920 19896 19900 28
15921 19901 19902 28
15922 19901 19903 28
15923 19901 19904 28
15924 19901 19905 28
15925 19906 19907 28
15926 19906 19908 28
15927 19906 19909 28
15928 19906 19910 28
15929 19911 19912 28
15930 19911 19913 28
15931 19911 19914 28
15932 19911 19915 28
15933 19916 19917 28
15934 19916 19918 28
15935 19916 19919 28
15936 19916 19920 28
15937 19921 19922 28
15938 19921 19923 28
15939 19921 19924 28
15940 19921 19925 28
15941 19926 19927 28
15942 19926 19928 28
15943 19926 19929 28
15944 19926 19930 28
15945 19931 19932 28
15946 19931 19933 28
15947 19931 19934 28
15948 19931 19935 28
15949 19936 19937 28
15950 19936 19938 28
15951 19936 19939 28
15952 19936 19940 28
15953 19941 19942 28
15954 19941 19943 28
15955 19941 19944 28
15956 19941 19945 28
15957 19946 19947 28
15958 19946 19948 28
15959 19946 19949 28
15960 19946 19950 28
15961 19951 19952 28
15962 19951 19953 28
15963 19951 19954 28
15964 19951 19955 28
15965 19956 19957 28
15966 19956 19958 28
15967 19956 19959 28
15968 19956 19960 28
15969 19961 19962 28
15970 19961 19963 28
15971 19961 19964 28
15972 19961 19965 28
15973 19966 19967 28
15974 19966 19968 28
15975 19966 19969 28
15976 19966 19970 28
15977 19971 19972 28
15978 19971 19973 28
15979 19971 19974 28
15980 19971 19975 28
15981 19976 19977 28
15982 19976 19978 28
15983 19976 19979 28
15984 19976 19980 28
15985 19981 19982 28
15986 19981 19983 28
15987 19981 19984 28
15988 19981 19985 28
15989 19986 19987 28
15990 19986 19988 28
15991 19986 19989 28
15992 19986 19990 28
15993 19991 19992 28
15994 19991 19993 28
15995 19991 19994 28
15996 19991 19995 28
15997 19996 19997 28
15998 19996 19998 28
15999 19996 19999 28
16000 19996 20000 28
16001 20001 20002 28
16002 20001 20003 28
16003 20001 20004 28
16004 20001 20005 28
16005 20006 20007 28
16006 20006 20008 28
16007 20006 20009 28
16008 20006 20010 28
16009 20011 20012 28
16010 20011 20013 28
16011 20011 20014 28
16012 20011 20015 28
16013 20016 20017 28
16014 20016 20018 28
16015 20016 20019 28
16016 20016 20020 28
16017 20021 20022 28
16018 20021 20023 28
16019 20021 20024 28
16020 20021 20025 28
16021 20026 20027 28
16022 20026 20028 28
16023 20026 20029 28
16024 20026 20030 28
16025 20031 20032 28
16026 20031 20033 28
16027 20031 20034 28
16028 20031 20035 28
16029 20036 20037 28
16030 20036 20038 28
16031 20036 20039 28
16032 20036 20040 28
16033 20041 20042 28
16034 20041 20043 28
16035 20041 20044 28
16036 20041 20045 28
16037 20046 20047 28
16038 20046 20048 28
16039 20046 20049 28
16040 20046 20050 28
16041 20051 20052 28
16042 20051 20053 28
16043 20051 20054 28
16044 20051 20055 28
16045 20056 20057 28
16046 20056 20058 28
16047 20056 20059 28
16048 20056 20060 28
16049 20061 20062 28
16050 20061 20063 28
16051 20061 20064 28
16052 20061 20065 28
16053 20066 20067 28
16054 20066 20068 28
16055 20066 20069 28
16056 20066 20070 28
16057 20071 20072 28
16058 20071 20073 28
16059 20071 20074 28
16060 20071 20075 28
16061 20076 20077 28
16062 20076 20078 28
16063 20076 20079 28
16064 20076 20080 28
16065 20081 20082 28
16066 20081 20083 28
16067 20081 20084 28
16068 20081 20085 28
16069 20086 20087 28
16070 20086 20088 28
16071 20086 20089 28
16072 20086 20090 28
16073 20091 20092 28
16074 20091 20093 28
16075 20091 20094 28
16076 20091 20095 28
16077 20096 20097 28
16078 20096 20098 28
16079 20096 20099 28
16080 20096 20100 28
16081 20101 20102 28
16082 20101 20103 28
16083 20101 20104 28
16084 20101 20105 28
16085 20106 20107 28
16086 20106 20108 28
16087 20106 20109 28
16088 20106 20110 28
16089 20111 20112 28
16090 20111 20113 28
16091 20111 20114 28
16092 20111 20115 28
16093 20116 20117 28
16094 20116 20118 28
16095 20116 20119 28
16096 20116 20120 28
16097 20121 20122 28
16098 20121 20123 28
16099 20121 20124 28
16100 20121 20125 28
16101 20126 20127 28
16102 20126 20128 28
16103 20126 20129 28
16104 20126 20130 28
16105 20131 20132 28
16106 20131 20133 28
16107 20131 20134 28
16108 20131 20135 28
16109 20136 20137 28
16110 20136 20138 28
16111 20136 20139 28
16112 20136 20140 28
16113 20141 20142 28
16114 20141 20143 28
16115 20141 20144 28
16116 20141 20145 28
16117 20146 20147 28
16118 20146 20148 28
16119 20146 20149 28
16120 20146 20150 28
16121 20151 20152 28
16122 20151 20153 28
16123 20151 20154 28
16124 20151 20155 28
16125 20156 20157 28
16126 20156 20158 28
16127 20156 20159 28
16128 20156 20160 28
16129 20161 20162 28
16130 20161 20163 28
16131 20161 20164 28
16132 20161 20165 28
16133 20166 20167 28
16134 20166 20168 28
16135 20166 20169 28
16136 20166 20170 28
16137 20171 20172 28
16138 20171 20173 28
16139 20171 20174 28
16140 20171 20175 28
16141 20176 20177 28
16142 20176 20178 28
16143 20176 20179 28
16144 20176 20180 28
16145 20181 20182 28
16146 20181 20183 28
16147 20181 20184 28
16148 20181 20185 28
16149 20186 20187 28
16150 20186 20188 28
16151 20186 20189 28
16152 20186 20190 28
16153 20191 20192 28
16154 20191 20193 28
16155 20191 20194 28
16156 20191 20195 28
16157 20196 20197 28
16158 20196 20198 28
16159 20196 20199 28
16160 20196 20200 28
16161 20201 20202 28
16162 20201 20203 28
16163 20201 20204 28
16164 20201 20205 28
16165 20206 20207 28
16166 20206 20208 28
16167 20206 20209 28
16168 20206 20210 28
16169 20211 20212 28
16170 20211 20213 28
16171 20211 20214 28
16172 20211 20215 28
16173 20216 20217 28
16174 20216 20218 28
16175 20216 20219 28
16176 20216 20220 28
16177 20221 20222 28
16178 20221 20223 28
16179 20221 20224 28
16180 20221 20225 28
16181 20226 20227 28
16182 20226 20228 28
16183 20226 20229 28
16184 20226 20230 28
16185 20231 20232 28
16186 20231 20233 28
16187 20231 20234 28
16188 20231 20235 28
16189 20236 20237 28
16190 20236 20238 28
16191 20236 20239 28
16192 20236 20240 28
16193 20241 20242 28
16194 20241 20243 28
16195 20241 20244 28
16196 20241 20245 28
16197 20246 20247 28
16198 20246 20248 28
16199 20246 20249 28
16200 20246 20250 28
16201 20251 20252 28
16202 20251 20253 28
16203 20251 20254 28
16204 20251 20255 28
16205 20256 20257 28
16206 20256 20258 28
16207 20256 20259 28
16208 20256 20260 28
16209 20261 20262 28
16210 20261 20263 28
16211 20261 20264 28
16212 20261 20265 28
16213 20266 20267 28
16214 20266 20268 28
16215 20266 20269 28
16216 20266 20270 28
16217 20271 20272 28
16218 20271 20273 28
16219 20271 20274 28
16220 20271 20275 28
16221 20276 20277 28
16222 20276 20278 28
16223 20276 20279 28
16224 20276 20280 28
16225 20281 20282 28
16226 20281 20283 28
16227 20281 20284 28
16228 20281 20285 28
16229 20286 20287 28
16230 20286 20288 28
16231 20286 20289 28
16232 20286 20290 28
16233 20291 20292 28
16234 20291 20293 28
16235 20291 20294 28
16236 20291 20295 28
16237 20296 20297 28
16238 20296 20298 28
16239 20296 20299 28
16240 20296 20300 28
16241 20301 20302 28
16242 20301 20303 28
16243 20301 20304 28
16244 20301 20305 28
16245 20306 20307 28
16246 20306 20308 28
16247 20306 20309 28
16248 20306 20310 28
16249 20311 20312 28
16250 20311 20313 28
16251 20311 20314 28
16252 20311 20315 28
16253 20316 20317 28
16254 20316 20318 28
16255 20316 20319 28
16256 20316 20320 28
16257 20321 20322 28
16258 20321 20323 28
16259 20321 20324 28
16260 20321 20325 28
16261 20326 20327 28
16262 20326 20328 28
16263 20326 20329 28
16264 20326 20330 28
16265 20331 20332 28
16266 20331 20333 28
16267 20331 20334 28
16268 20331 20335 28
16269 20336 20337 28
16270 20336 20338 28
16271 20336 20339 28
16272 20336 20340 28
16273 20341 20342 28
16274 20341 20343 28
16275 20341 20344 28
16276 20341 20345 28
16277 20346 20347 28
16278 20346 20348 28
16279 20346 20349 28
16280 20346 20350 28
16281 20351 20352 28
16282 20351 20353 28
16283 20351 20354 28
16284 20351 20355 28
16285 20356 20357 28
16286 20356 20358 28
16287 20356 20359 28
16288 20356 20360 28
16289 20361 20362 28
16290 20361 20363 28
16291 20361 20364 28
16292 20361 20365 28
16293 20366 20367 28
16294 20366 20368 28
16295 20366 20369 28
16296 20366 20370 28
16297 20371 20372 28
16298 20371 20373 28
16299 20371 20374 28
16300 20371 20375 28
16301 20376 20377 28
16302 20376 20378 28
16303 20376 20379 28
16304 20376 20380 28
16305 20381 20382 28
16306 20381 20383 28
16307 20381 20384 28
16308 20381 20385 28
16309 20386 20387 28
16310 20386 20388 28
16311 20386 20389 28
16312 20386 20390 28
16313 20391 20392 28
16314 20391 20393 28
16315 20391 20394 28
16316 20391 20395 28
16317 20396 20397 28
16318 20396 20398 28
16319 20396 20399 28
16320 20396 20400 28
16321 20401 20402 28
16322 20401 20403 28
16323 20401 20404 28
16324 20401 20405 28
16325 20406 20407 28
16326 20406 20408 28
16327 20406 20409 28
16328 20406 20410 28
16329 20411 20412 28
16330 20411 20413 28
16331 20411 20414 28
16332 20411 20415 28
16333 20416 20417 28
16334 20416 20418 28
16335 20416 20419 28
16336 20416 20420 28
16337 20421 20422 28
16338 20421 20423 28
16339 20421 20424 28
16340 20421 20425 28
16341 20426 20427 28
16342 20426 20428 28
16343 20426 20429 28
16344 20426 20430 28
16345 20431 20432 28
16346 20431 20433 28
16347 20431 20434 28
16348 20431 20435 28
16349 20436 20437 28
16350 20436 20438 28
16351 20436 20439 28
16352 20436 20440 28
16353 20441 20442 28
16354 20441 20443 28
16355 20441 20444 28
16356 20441 20445 28
16357 20446 20447 28
16358 20446 20448 28
16359 20446 20449 28
16360 20446 20450 28
16361 20451 20452 28
16362 20451 20453 28
16363 20451 20454 28
16364 20451 20455 28
16365 20456 20457 28
16366 20456 20458 28
16367 20456 20459 28
16368 20456 20460 28
16369 20461 20462 28
16370 20461 20463 28
16371 20461 20464 28
16372 20461 20465 28
16373 20466 20467 28
16374 20466 20468 28
16375 20466 20469 28
16376 20466 20470 28
16377 20471 20472 28
16378 20471 20473 28
16379 20471 20474 28
16380 20471 20475 28
16381 20476 20477 28
16382 20476 20478 28
16383 20476 20479 28
16384 20476 20480 28
16385 20481 20482 28
16386 20481 20483 28
16387 20481 20484 28
16388 20481 20485 28
16389 20486 20487 28
16390 20486 20488 28
16391 20486 20489 28
16392 20486 20490 28
16393 20491 20492 28
16394 20491 20493 28
16395 20491 20494 28
16396 20491 20495 28
16397 20496 20497 28
16398 20496 20498 28
16399 20496 20499 28
16400 20496 20500 28
16401 20501 20502 28
16402 20501 20503 28
16403 20501 20504 28
16404 20501 20505 28
16405 20506 20507 28
16406 20506 20508 28
16407 20506 20509 28
16408 20506 20510 28
16409 20511 20512 28
16410 20511 20513 28
16411 20511 20514 28
16412 20511 20515 28
16413 20516 20517 28
16414 20516 20518 28
16415 20516 20519 28
16416 20516 20520 28
16417 20521 20522 28
16418 20521 20523 28
16419 20521 20524 28
16420 20521 20525 28
16421 20526 20527 28
16422 20526 20528 28
16423 20526 20529 28
16424 20526 20530 28
16425 20531 20532 28
16426 20531 20533 28
16427 20531 20534 28
16428 20531 20535 28
16429 20536 20537 28
16430 20536 20538 28
16431 20536 20539 28
16432 20536 20540 28
16433 20541 20542 28
16434 20541 20543 28
16435 20541 20544 28
16436 20541 20545 28
16437 20546 20547 28
16438 20546 20548 28
16439 20546 20549 28
16440 20546 20550 28
16441 20551 20552 28
16442 20551 20553 28
16443 20551 20554 28
16444 20551 20555 28
16445 20556 20557 28
16446 20556 20558 28
16447 20556 20559 28
16448 20556 20560 28
16449 20561 20562 28
16450 20561 20563 28
16451 20561 20564 28
16452 20561 20565 28
16453 20566 20567 28
16454 20566 20568 28
16455 20566 20569 28
16456 20566 20570 28
16457 20571 20572 28
16458 20571 20573 28
16459 20571 20574 28
16460 20571 20575 28
16461 20576 20577 28
16462 20576 20578 28
16463 20576 20579 28
16464 20576 20580 28
16465 20581 20582 28
16466 20581 20583 28
16467 20581 20584 28
16468 20581 20585 28
16469 20586 20587 28
16470 20586 20588 28
16471 20586 20589 28
16472 20586 20590 28
16473 20591 20592 28
16474 20591 20593 28
16475 20591 20594 28
16476 20591 20595 28
16477 20596 20597 28
16478 20596 20598 28
16479 20596 20599 28
16480 20596 20600 28
16481 20601 20602 28
16482 20601 20603 28
16483 20601 20604 28
16484 20601 20605 28
16485 20606 20607 28
16486 20606 20608 28
16487 20606 20609 28
16488 20606 20610 28
16489 20611 20612 28
16490 20611 20613 28
16491 20611 20614 28
16492 20611 20615 28
16493 20616 20617 28
16494 20616 20618 28
16495 20616 20619 28
16496 20616 20620 28
16497 20621 20622 28
16498 20621 20623 28
16499 20621 20624 28
16500 20621 20625 28
16501 20626 20627 28
16502 20626 20628 28
16503 20626 20629 28
16504 20626 20630 28
16505 20631 20632 28
16506 20631 20633 28
16507 20631 20634 28
16508 20631 20635 28
16509 20636 20637 28
16510 20636 20638 28
16511 20636 20639 28
16512 20636 20640 28
16513 20641 20642 28
16514 20641 20643 28
16515 20641 20644 28
16516 20641 20645 28
16517 20646 20647 28
16518 20646 20648 28
16519 20646 20649 28
16520 20646 20650 28
16521 20651 20652 28
16522 20651 20653 28
16523 20651 20654 28
16524 20651 20655 28
16525 20656 20657 28
16526 20656 20658 28
16527 20656 20659 28
16528 20656 20660 28
16529 20661 20662 28
16530 20661 20663 28
16531 20661 20664 28
16532 20661 20665 28
16533 20666 20667 28
16534 20666 20668 28
16535 20666 20669 28
16536 20666 20670 28
16537 20671 20672 28
16538 20671 20673 28
16539 20671 20674 28
16540 20671 20675 28
16541 20676 20677 28
16542 20676 20678 28
16543 20676 20679 28
16544 20676 20680 28
16545 20681 20682 28
16546 20681 20683 28
16547 20681 20684 28
16548 20681 20685 28
16549 20686 20687 28
16550 20686 20688 28
16551 20686 20689 28
16552 20686 20690 28
16553 20691 20692 28
16554 20691 20693 28
16555 20691 20694 28
16556 20691 20695 28
16557 20696 20697 28
16558 20696 20698 28
16559 20696 20699 28
16560 20696 20700 28
16561 20701 20702 28
16562 20701 20703 28
16563 20701 20704 28
16564 20701 20705 28
16565 20706 20707 28
16566 20706 20708 28
16567 20706 20709 28
16568 20706 20710 28
16569 20711 20712 28
16570 20711 20713 28
16571 20711 20714 28
16572 20711 20715 28
16573 20716 20717 28
16574 20716 20718 28
16575 20716 20719 28
16576 20716 20720 28
16577 20721 20722 28
16578 20721 20723 28
16579 20721 20724 28
16580 20721 20725 28
16581 20726 20727 28
16582 20726 20728 28
16583 20726 20729 28
16584 20726 20730 28
16585 20731 20732 28
16586 20731 20733 28
16587 20731 20734 28
16588 20731 20735 28
16589 20736 20737 28
16590 20736 20738 28
16591 20736 20739 28
16592 20736 20740 28
16593 20741 20742 28
16594 20741 20743 28
16595 20741 20744 28
16596 20741 20745 28
16597 20746 20747 28
16598 20746 20748 28
16599 20746 20749 28
16600 20746 20750 28
16601 20751 20752 28
16602 20751 20753 28
16603 20751 20754 28
16604 20751 20755 28
16605 20756 20757 28
16606 20756 20758 28
16607 20756 20759 28
16608 20756 20760 28
16609 20761 20762 28
16610 20761 20763 28
16611 20761 20764 28
16612 20761 20765 28
16613 20766 20767 28
16614 20766 20768 28
16615 20766 20769 28
16616 20766 20770 28
16617 20771 20772 28
16618 20771 20773 28
16619 20771 20774 28
16620 20771 20775 28
16621 20776 20777 28
16622 20776 20778 28
16623 20776 20779 28
16624 20776 20780 28
16625 20781 20782 28
16626 20781 20783 28
16627 20781 20784 28
16628 20781 20785 28
16629 20786 20787 28
16630 20786 20788 28
16631 20786 20789 28
16632 20786 20790 28
16633 20791 20792 28
16634 20791 20793 28
16635 20791 20794 28
16636 20791 20795 28
16637 20796 20797 28
16638 20796 20798 28
16639 20796 20799 28
16640 20796 20800 28
16641 20801 20802 28
16642 20801 20803 28
16643 20801 20804 28
16644 20801 20805 28
16645 20806 20807 28
16646 20806 20808 28
16647 20806 20809 28
16648 20806 20810 28
16649 20811 20812 28
16650 20811 20813 28
16651 20811 20814 28
16652 20811 20815 28
16653 20816 20817 28
16654 20816 20818 28
16655 20816 20819 28
16656 20816 20820 28
16657 20821 20822 28
16658 20821 20823 28
16659 20821 20824 28
16660 20821 20825 28
16661 20826 20827 28
16662 20826 20828 28
16663 20826 20829 28
16664 20826 20830 28
16665 20831 20832 28
16666 20831 20833 28
16667 20831 20834 28
16668 20831 20835 28
16669 20836 20837 28
16670 20836 20838 28
16671 20836 20839 28
16672 20836 20840 28
16673 20841 20842 28
16674 20841 20843 28
16675 20841 20844 28
16676 20841 20845 28
16677 20846 20847 28
16678 20846 20848 28
16679 20846 20849 28
16680 20846 20850 28
16681 20851 20852 28
16682 20851 20853 28
16683 20851 20854 28
16684 20851 20855 28
16685 20856 20857 28
16686 20856 20858 28
16687 20856 20859 28
16688 20856 20860 28
16689 20861 20862 28
16690 20861 20863 28
16691 20861 20864 28
16692 20861 20865 28
16693 20866 20867 28
16694 20866 20868 28
16695 20866 20869 28
16696 20866 20870 28
16697 20871 20872 28
16698 20871 20873 28
16699 20871 20874 28
16700 20871 20875 28
16701 20876 20877 28
16702 20876 20878 28
16703 20876 20879 28
16704 20876 20880 28
16705 20881 20882 28
16706 20881 20883 28
16707 20881 20884 28
16708 20881 20885 28
16709 20886 20887 28
16710 20886 20888 28
16711 20886 20889 28
16712 20886 20890 28
16713 20891 20892 28
16714 20891 20893 28
16715 20891 20894 28
16716 20891 20895 28
16717 20896 20897 28
16718 20896 20898 28
16719 20896 20899 28
16720 20896 20900 28
16721 20901 20902 28
16722 20901 20903 28
16723 20901 20904 28
16724 20901 20905 28
16725 20906 20907 28
16726 20906 20908 28
16727 20906 20909 28
16728 20906 20910 28
16729 20911 20912 28
16730 20911 20913 28
16731 20911 20914 28
16732 20911 20915 28
16733 20916 20917 28
16734 20916 20918 28
16735 20916 20919 28
16736 20916 20920 28
16737 20921 20922 28
16738 20921 20923 28
16739 20921 20924 28
16740 20921 20925 28
16741 20926 20927 28
16742 20926 20928 28
16743 20926 20929 28
16744 20926 20930 28
16745 20931 20932 28
16746 20931 20933 28
16747 20931 20934 28
16748 20931 20935 28
16749 20936 20937 28
16750 20936 20938 28
16751 20936 20939 28
16752 20936 20940 28
16753 20941 20942 28
16754 20941 20943 28
16755 20941 20944 28
16756 20941 20945 28
16757 20946 20947 28
16758 20946 20948 28
16759 20946 20949 28
16760 20946 20950 28
16761 20951 20952 28
16762 20951 20953 28
16763 20951 20954 28
16764 20951 20955 28
16765 20956 20957 28
16766 20956 20958 28
16767 20956 20959 28
16768 20956 20960 28
16769 20961 20962 28
16770 20961 20963 28
16771 20961 20964 28
16772 20961 20965 28
16773 20966 20967 28
16774 20966 20968 28
16775 20966 20969 28
16776 20966 20970 28
16777 20971 20972 28
16778 20971 20973 28
16779 20971 20974 28
16780 20971 20975 28
16781 20976 20977 28
16782 20976 20978 28
16783 20976 20979 28
16784 20976 20980 28
16785 20981 20982 28
16786 20981 20983 28
16787 20981 20984 28
16788 20981 20985 28
16789 20986 20987 28
16790 20986 20988 28
16791 20986 20989 28
16792 20986 20990 28
16793 20991 20992 28
16794 20991 20993 28
16795 20991 20994 28
16796 20991 20995 28
16797 20996 20997 28
16798 20996 20998 28
16799 20996 20999 28
16800 20996 21000 28
16801 21001 21002 28
16802 21001 21003 28
16803 21001 21004 28
16804 21001 21005 28
16805 21006 21007 28
16806 21006 21008 28
16807 21006 21009 28
16808 21006 21010 28
16809 21011 21012 28
16810 21011 21013 28
16811 21011 21014 28
16812 21011 21015 28
16813 21016 21017 28
16814 21016 21018 28
16815 21016 21019 28
16816 21016 21020 28
16817 21021 21022 28
16818 21021 21023 28
16819 21021 21024 28
16820 21021 21025 28
16821 21026 21027 28
16822 21026 21028 28
16823 21026 21029 28
16824 21026 21030 28
16825 21031 21032 28
16826 21031 21033 28
16827 21031 21034 28
16828 21031 21035 28
16829 21036 21037 28
16830 21036 21038 28
16831 21036 21039 28
16832 21036 21040 28
16833 21041 21042 28
16834 21041 21043 28
16835 21041 21044 28
16836 21041 21045 28
16837 21046 21047 28
16838 21046 21048 28
16839 21046 21049 28
16840 21046 21050 28
16841 21051 21052 28
16842 21051 21053 28
16843 21051 21054 28
16844 21051 21055 28
16845 21056 21057 28
16846 21056 21058 28
16847 21056 21059 28
16848 21056 21060 28
16849 21061 21062 28
16850 21061 21063 28
16851 21061 21064 28
16852 21061 21065 28
16853 21066 21067 28
16854 21066 21068 28
16855 21066 21069 28
16856 21066 21070 28
16857 21071 21072 28
16858 21071 21073 28
16859 21071 21074 28
16860 21071 21075 28
16861 21076 21077 28
16862 21076 21078 28
16863 21076 21079 28
16864 21076 21080 28
16865 21081 21082 28
16866 21081 21083 28
16867 21081 21084 28
16868 21081 21085 28
16869 21086 21087 28
16870 21086 21088 28
16871 21086 21089 28
16872 21086 21090 28
16873 21091 21092 28
16874 21091 21093 28
16875 21091 21094 28
16876 21091 21095 28
16877 21096 21097 28
16878 21096 21098 28
16879 21096 21099 28
16880 21096 21100 28
16881 21101 21102 28
16882 21101 21103 28
16883 21101 21104 28
16884 21101 21105 28
16885 21106 21107 28
16886 21106 21108 28
16887 21106 21109 28
16888 21106 21110 28
16889 21111 21112 28
16890 21111 21113 28
16891 21111 21114 28
16892 21111 21115 28
16893 21116 21117 28
16894 21116 21118 28
16895 21116 21119 28
16896 21116 21120 28
16897 21121 21122 28
16898 21121 21123 28
16899 21121 21124 28
16900 21121 21125 28
16901 21126 21127 28
16902 21126 21128 28
16903 21126 21129 28
16904 21126 21130 28
16905 21131 21132 28
16906 21131 21133 28
16907 21131 21134 28
16908 21131 21135 28
16909 21136 21137 28
16910 21136 21138 28
16911 21136 21139 28
16912 21136 21140 28
16913 21141 21142 28
16914 21141 21143 28
16915 21141 21144 28
16916 21141 21145 28
16917 21146 21147 28
16918 21146 21148 28
16919 21146 21149 28
16920 21146 21150 28
16921 21151 21152 28
16922 21151 21153 28
16923 21151 21154 28
16924 21151 21155 28
16925 21156 21157 28
16926 21156 21158 28
16927 21156 21159 28
16928 21156 21160 28
16929 21161 21162 28
16930 21161 21163 28
16931 21161 21164 28
16932 21161 21165 28
16933 21166 21167 28
16934 21166 21168 28
16935 21166 21169 28
16936 21166 21170 28
16937 21171 21172 28
16938 21171 21173 28
16939 21171 21174 28
16940 21171 21175 28
16941 21176 21177 28
16942 21176 21178 28
16943 21176 21179 28
16944 21176 21180 28
16945 21181 21182 28
16946 21181 21183 28
16947 21181 21184 28
16948 21181 21185 28
16949 21186 21187 28
16950 21186 21188 28
16951 21186 21189 28
16952 21186 21190 28
16953 21191 21192 28
16954 21191 21193 28
16955 21191 21194 28
16956 21191 21195 28
16957 21196 21197 28
16958 21196 21198 28
16959 21196 21199 28
16960 21196 21200 28
16961 21201 21202 28
16962 21201 21203 28
16963 21201 21204 28
16964 21201 21205 28
16965 21206 21207 28
16966 21206 21208 28
16967 21206 21209 28
16968 21206 21210 28
16969 21211 21212 28
16970 21211 21213 28
16971 21211 21214 28
16972 21211 21215 28
16973 21216 21217 28
16974 21216 21218 28
16975 21216 21219 28
16976 21216 21220 28
16977 21221 21222 28
16978 21221 21223 28
16979 21221 21224 28
16980 21221 21225 28
16981 21226 21227 28
16982 21226 21228 28
16983 21226 21229 28
16984 21226 21230 28
16985 21231 21232 28
16986 21231 21233 28
16987 21231 21234 28
16988 21231 21235 28
16989 21236 21237 28
16990 21236 21238 28
16991 21236 21239 28
16992 21236 21240 28
16993 21241 21242 28
16994 21241 21243 28
16995 21241 21244 28
16996 21241 21245 28
16997 21246 21247 28
16998 21246 21248 28
16999 21246 21249 28
17000 21246 21250 28
17001 21251 21252 28
17002 21251 21253 28
17003 21251 21254 28
17004 21251 21255 28
17005 21256 21257 28
17006 21256 21258 28
17007 21256 21259 28
17008 21256 21260 28
17009 21261 21262 28
17010 21261 21263 28
17011 21261 21264 28
17012 21261 21265 28
17013 21266 21267 28
17014 21266 21268 28
17015 21266 21269 28
17016 21266 21270 28
17017 21271 21272 28
17018 21271 21273 28
17019 21271 21274 28
17020 21271 21275 28
17021 21276 21277 28
17022 21276 21278 28
17023 21276 21279 28
17024 21276 21280 28
17025 21281 21282 28
17026 21281 21283 28
17027 21281 21284 28
17028 21281 21285 28
17029 21286 21287 28
17030 21286 21288 28
17031 21286 21289 28
17032 21286 21290 28
17033 21291 21292 28
17034 21291 21293 28
17035 21291 21294 28
17036 21291 21295 28
17037 21296 21297 28
17038 21296 21298 28
17039 21296 21299 28
17040 21296 21300 28
17041 21301 21302 28
17042 21301 21303 28
17043 21301 21304 28
17044 21301 21305 28
17045 21306 21307 28
17046 21306 21308 28
17047 21306 21309 28
17048 21306 21310 28
17049 21311 21312 28
17050 21311 21313 28
17051 21311 21314 28
17052 21311 21315 28
17053 21316 21317 28
17054 21316 21318 28
17055 21316 21319 28
17056 21316 21320 28
17057 21321 21322 28
17058 21321 21323 28
17059 21321 21324 28
17060 21321 21325 28
17061 21326 21327 28
17062 21326 21328 28
17063 21326 21329 28
17064 21326 21330 28
17065 21331 21332 28
17066 21331 21333 28
17067 21331 21334 28
17068 21331 21335 28
17069 21336 21337 28
17070 21336 21338 28
17071 21336 21339 28
17072 21336 21340 28
17073 21341 21342 28
17074 21341 21343 28
17075 21341 21344 28
17076 21341 21345 28
17077 21346 21347 28
17078 21346 21348 28
17079 21346 21349 28
17080 21346 21350 28
17081 21351 21352 28
17082 21351 21353 28
17083 21351 21354 28
17084 21351 21355 28
17085 21356 21357 28
17086 21356 21358 28
17087 21356 21359 28
17088 21356 21360 28
17089 21361 21362 28
17090 21361 21363 28
17091 21361 21364 28
17092 21361 21365 28
17093 21366 21367 28
17094 21366 21368 28
17095 21366 21369 28
17096 21366 21370 28
17097 21371 21372 28
17098 21371 21373 28
17099 21371 21374 28
17100 21371 21375 28
17101 21376 21377 28
17102 21376 21378 28
17103 21376 21379 28
17104 21376 21380 28
17105 21381 21382 28
17106 21381 21383 28
17107 21381 21384 28
17108 21381 21385 28
17109 21386 21387 28
17110 21386 21388 28
17111 21386 21389 28
17112 21386 21390 28
17113 21391 21392 28
17114 21391 21393 28
17115 21391 21394 28
17116 21391 21395 28
17117 21396 21397 28
17118 21396 21398 28
17119 21396 21399 28
17120 21396 21400 28
17121 21401 21402 28
17122 21401 21403 28
17123 21401 21404 28
17124 21401 21405 28
17125 21406 21407 28
17126 21406 21408 28
17127 21406 21409 28
17128 21406 21410 28
17129 21411 21412 28
17130 21411 21413 28
17131 21411 21414 28
17132 21411 21415 28
17133 21416 21417 28
17134 21416 21418 28
17135 21416 21419 28
17136 21416 21420 28
17137 21421 21422 28
17138 21421 21423 28
17139 21421 21424 28
17140 21421 21425 28
17141 21426 21427 28
17142 21426 21428 28
17143 21426 21429 28
17144 21426 21430 28
17145 21431 21432 28
17146 21431 21433 28
17147 21431 21434 28
17148 21431 21435 28
17149 21436 21437 28
17150 21436 21438 28
17151 21436 21439 28
17152 21436 21440 28
17153 21441 21442 28
17154 21441 21443 28
17155 21441 21444 28
17156 21441 21445 28
17157 21446 21447 28
17158 21446 21448 28
17159 21446 21449 28
17160 21446 21450 28
17161 21451 21452 28
17162 21451 21453 28
17163 21451 21454 28
17164 21451 21455 28
17165 21456 21457 28
17166 21456 21458 28
17167 21456 21459 28
17168 21456 21460 28
17169 21461 21462 28
17170 21461 21463 28
17171 21461 21464 28
17172 21461 21465 28
17173 21466 21467 28
17174 21466 21468 28
17175 21466 21469 28
17176 21466 21470 28
17177 21471 21472 28
17178 21471 21473 28
17179 21471 21474 28
17180 21471 21475 28
17181 21476 21477 28
17182 21476 21478 28
17183 21476 21479 28
17184 21476 21480 28
17185 21481 21482 28
17186 21481 21483 28
17187 21481 21484 28
17188 21481 21485 28
17189 21486 21487 28
17190 21486 21488 28
17191 21486 21489 28
17192 21486 21490 28
17193 21491 21492 28
17194 21491 21493 28
17195 21491 21494 28
17196 21491 21495 28
17197 21496 21497 28
17198 21496 21498 28
17199 21496 21499 28
17200 21496 21500 28
17201 21501 21502 28
17202 21501 21503 28
17203 21501 21504 28
17204 21501 21505 28
17205 21506 21507 28
17206 21506 21508 28
17207 21506 21509 28
17208 21506 21510 28
17209 21511 21512 28
17210 21511 21513 28
17211 21511 21514 28
17212 21511 21515 28
17213 21516 21517 28
17214 21516 21518 28
17215 21516 21519 28
17216 21516 21520 28
17217 21521 21522 28
17218 21521 21523 28
17219 21521 21524 28
17220 21521 21525 28
17221 21526 21527 28
17222 21526 21528 28
17223 21526 21529 28
17224 21526 21530 28
17225 21531 21532 28
17226 21531 21533 28
17227 21531 21534 28
17228 21531 21535 28
17229 21536 21537 28
17230 21536 21538 28
17231 21536 21539 28
17232 21536 21540 28
17233 21541 21542 28
17234 21541 21543 28
17235 21541 21544 28
17236 21541 21545 28
17237 21546 21547 28
17238 21546 21548 28
17239 21546 21549 28
17240 21546 21550 28
17241 21551 21552 28
17242 21551 21553 28
17243 21551 21554 28
17244 21551 21555 28
17245 21556 21557 28
17246 21556 21558 28
17247 21556 21559 28
17248 21556 21560 28
17249 21561 21562 28
17250 21561 21563 28
17251 21561 21564 28
17252 21561 21565 28
17253 21566 21567 28
17254 21566 21568 28
17255 21566 21569 28
17256 21566 21570 28
17257 21571 21572 28
17258 21571 21573 28
17259 21571 21574 28
17260 21571 21575 28
17261 21576 21577 28
17262 21576 21578 28
17263 21576 21579 28
17264 21576 21580 28
17265 21581 21582 28
17266 21581 21583 28
17267 21581 21584 28
17268 21581 21585 28
17269 21586 21587 28
17270 21586 21588 28
17271 21586 21589 28
17272 21586 21590 28
17273 21591 21592 28
17274 21591 21593 28
17275 21591 21594 28
17276 21591 21595 28
17277 21596 21597 28
17278 21596 21598 28
17279 21596 21599 28
17280 21596 21600 28
17281 21601 21602 28
17282 21601 21603 28
17283 21601 21604 28
17284 21601 21605 28
17285 21606 21607 28
17286 21606 21608 28
17287 21606 21609 28
17288 21606 21610 28
17289 21611 21612 28
17290 21611 21613 28
17291 21611 21614 28
17292 21611 21615 28
17293 21616 21617 28
17294 21616 21618 28
17295 21616 21619 28
17296 21616 21620 28
17297 21621 21622 28
17298 21621 21623 28
17299 21621 21624 28
17300 21621 21625 28
17301 21626 21627 28
17302 21626 21628 28
17303 21626 21629 28
17304 21626 21630 28
17305 21631 21632 28
17306 21631 21633 28
17307 21631 21634 28
17308 21631 21635 28
17309 21636 21637 28
17310 21636 21638 28
17311 21636 21639 28
17312 21636 21640 28
17313 21641 21642 28
17314 21641 21643 28
17315 21641 21644 28
17316 21641 21645 28
17317 21646 21647 28
17318 21646 21648 28
17319 21646 21649 28
17320 21646 21650 28
17321 21651 21652 28
17322 21651 21653 28
17323 21651 21654 28
17324 21651 21655 28
17325 21656 21657 28
17326 21656 21658 28
17327 21656 21659 28
17328 21656 21660 28
17329 21661 21662 28
17330 21661 21663 28
17331 21661 21664 28
17332 21661 21665 28
17333 21666 21667 28
17334 21666 21668 28
17335 21666 21669 28
17336 21666 21670 28
17337 21671 21672 28
17338 21671 21673 28
17339 21671 21674 28
17340 21671 21675 28
17341 21676 21677 28
17342 21676 21678 28
17343 21676 21679 28
17344 21676 21680 28
17345 21681 21682 28
17346 21681 21683 28
17347 21681 21684 28
17348 21681 21685 28
17349 21686 21687 28
17350 21686 21688 28
17351 21686 21689 28
17352 21686 21690 28
17353 21691 21692 28
17354 21691 21693 28
17355 21691 21694 28
17356 21691 21695 28
17357 21696 21697 28
17358 21696 21698 28
17359 21696 21699 28
17360 21696 21700 28
17361 21701 21702 28
17362 21701 21703 28
17363 21701 21704 28
17364 21701 21705 28
17365 21706 21707 28
17366 21706 21708 28
17367 21706 21709 28
17368 21706 21710 28
17369 21711 21712 28
17370 21711 21713 28
17371 21711 21714 28
17372 21711 21715 28
17373 21716 21717 28
17374 21716 21718 28
17375 21716 21719 28
17376 21716 21720 28
17377 21721 21722 28
17378 21721 21723 28
17379 21721 21724 28
17380 21721 21725 28
17381 21726 21727 28
17382 21726 21728 28
17383 21726 21729 28
17384 21726 21730 28
17385 21731 21732 28
17386 21731 21733 28
17387 21731 21734 28
17388 21731 21735 28
17389 21736 21737 28
17390 21736 21738 28
17391 21736 21739 28
17392 21736 21740 28
17393 21741 21742 28
17394 21741 21743 28
17395 21741 21744 28
17396 21741 21745 28
17397 21746 21747 28
17398 21746 21748 28
17399 21746 21749 28
17400 21746 21750 28
17401 21751 21752 28
17402 21751 21753 28
17403 21751 21754 28
17404 21751 21755 28
17405 21756 21757 28
17406 21756 21758 28
17407 21756 21759 28
17408 21756 21760 28
17409 21761 21762 28
17410 21761 21763 28
17411 21761 21764 28
17412 21761 21765 28
17413 21766 21767 28
17414 21766 21768 28
17415 21766 21769 28
17416 21766 21770 28
17417 21771 21772 28
17418 21771 21773 28
17419 21771 21774 28
17420 21771 21775 28
17421 21776 21777 28
17422 21776 21778 28
17423 21776 21779 28
17424 21776 21780 28
17425 21781 21782 28
17426 21781 21783 28
17427 21781 21784 28
17428 21781 21785 28
17429 21786 21787 28
17430 21786 21788 28
17431 21786 21789 28
17432 21786 21790 28
17433 21791 21792 28
17434 21791 21793 28
17435 21791 21794 28
17436 21791 21795 28
17437 21796 21797 28
17438 21796 21798 28
17439 21796 21799 28
17440 21796 21800 28
17441 21801 21802 28
17442 21801 21803 28
17443 21801 21804 28
17444 21801 21805 28
17445 21806 21807 28
17446 21806 21808 28
17447 21806 21809 28
17448 21806 21810 28
17449 21811 21812 28
17450 21811 21813 28
17451 21811 21814 28
17452 21811 21815 28
17453 21816 21817 28
17454 21816 21818 28
17455 21816 21819 28
17456 21816 21820 28
17457 21821 21822 28
17458 21821 21823 28
17459 21821 21824 28
17460 21821 21825 28
17461 21826 21827 28
17462 21826 21828 28
17463 21826 21829 28
17464 21826 21830 28
17465 21831 21832 28
17466 21831 21833 28
17467 21831 21834 28
17468 21831 21835 28
17469 21836 21837 28
17470 21836 21838 28
17471 21836 21839 28
17472 21836 21840 28
17473 21841 21842 28
17474 21841 21843 28
17475 21841 21844 28
17476 21841 21845 28
17477 21846 21847 28
17478 21846 21848 28
17479 21846 21849 28
17480 21846 21850 28
17481 21851 21852 28
17482 21851 21853 28
17483 21851 21854 28
17484 21851 21855 28
17485 21856 21857 28
17486 21856 21858 28
17487 21856 21859 28
17488 21856 21860 28
17489 21861 21862 28
17490 21861 21863 28
17491 21861 21864 28
17492 21861 21865 28
17493 21866 21867 28
17494 21866 21868 28
17495 21866 21869 28
17496 21866 21870 28
17497 21871 21872 28
17498 21871 21873 28
17499 21871 21874 28
17500 21871 21875 28
17501 21876 21877 28
17502 21876 21878 28
17503 21876 21879 28
17504 21876 21880 28
17505 21881 21882 28
17506 21881 21883 28
17507 21881 21884 28
17508 21881 21885 28
17509 21886 21887 28
17510 21886 21888 28
17511 21886 21889 28
17512 21886 21890 28
17513 21891 21892 28
17514 21891 21893 28
17515 21891 21894 28
17516 21891 21895 28
17517 21896 21897 28
17518 21896 21898 28
17519 21896 21899 28
17520 21896 21900 28
17521 21901 21902 28
17522 21901 21903 28
17523 21901 21904 28
17524 21901 21905 28
17525 21906 21907 28
17526 21906 21908 28
17527 21906 21909 28
17528 21906 21910 28
17529 21911 21912 28
17530 21911 21913 28
17531 21911 21914 28
17532 21911 21915 28
17533 21916 21917 28
17534 21916 21918 28
17535 21916 21919 28
17536 21916 21920 28
17537 21921 21922 28
17538 21921 21923 28
17539 21921 21924 28
17540 21921 21925 28
17541 21926 21927 28
17542 21926 21928 28
17543 21926 21929 28
17544 21926 21930 28
17545 21931 21932 28
17546 21931 21933 28
17547 21931 21934 28
17548 21931 21935 28
17549 21936 21937 28
17550 21936 21938 28
17551 21936 21939 28
17552 21936 21940 28
17553 21941 21942 28
17554 21941 21943 28
17555 21941 21944 28
17556 21941 21945 28
17557 21946 21947 28
17558 21946 21948 28
17559 21946 21949 28
17560 21946 21950 28
17561 21951 21952 28
17562 21951 21953 28
17563 21951 21954 28
17564 21951 21955 28
17565 21956 21957 28
17566 21956 21958 28
17567 21956 21959 28
17568 21956 21960 28
17569 21961 21962 28
17570 21961 21963 28
17571 21961 21964 28
17572 21961 21965 28
17573 21966 21967 28
17574 21966 21968 28
17575 21966 21969 28
17576 21966 21970 28
17577 21971 21972 28
17578 21971 21973 28
17579 21971 21974 28
17580 21971 21975 28
17581 21976 21977 28
17582 21976 21978 28
17583 21976 21979 28
17584 21976 21980 28
17585 21981 21982 28
17586 21981 21983 28
17587 21981 21984 28
17588 21981 21985 28
17589 21986 21987 28
17590 21986 21988 28
17591 21986 21989 28
17592 21986 21990 28
17593 21991 21992 28
17594 21991 21993 28
17595 21991 21994 28
17596 21991 21995 28
17597 21996 21997 28
17598 21996 21998 28
17599 21996 21999 28
17600 21996 22000 28
17601 22001 22002 28
17602 22001 22003 28
17603 22001 22004 28
17604 22001 22005 28
17605 22006 22007 28
17606 22006 22008 28
17607 22006 22009 28
17608 22006 22010 28
17609 22011 22012 28
17610 22011 22013 28
17611 22011 22014 28
17612 22011 22015 28
17613 22016 22017 28
17614 22016 22018 28
17615 22016 22019 28
17616 22016 22020 28
17617 22021 22022 28
17618 22021 22023 28
17619 22021 22024 28
17620 22021 22025 28
17621 22026 22027 28
17622 22026 22028 28
17623 22026 22029 28
17624 22026 22030 28
17625 22031 22032 28
17626 22031 22033 28
17627 22031 22034 28
17628 22031 22035 28
17629 22036 22037 28
17630 22036 22038 28
17631 22036 22039 28
17632 22036 22040 28
17633 22041 22042 28
17634 22041 22043 28
17635 22041 22044 28
17636 22041 22045 28
17637 22046 22047 28
17638 22046 22048 28
17639 22046 22049 28
17640 22046 22050 28
17641 22051 22052 28
17642 22051 22053 28
17643 22051 22054 28
17644 22051 22055 28
17645 22056 22057 28
17646 22056 22058 28
17647 22056 22059 28
17648 22056 22060 28
17649 22061 22062 28
17650 22061 22063 28
17651 22061 22064 28
17652 22061 22065 28
17653 22066 22067 28
17654 22066 22068 28
17655 22066 22069 28
17656 22066 22070 28
17657 22071 22072 28
17658 22071 22073 28
17659 22071 22074 28
17660 22071 22075 28
17661 22076 22077 28
17662 22076 22078 28
17663 22076 22079 28
17664 22076 22080 28
17665 22081 22082 28
17666 22081 22083 28
17667 22081 22084 28
17668 22081 22085 28
17669 22086 22087 28
17670 22086 22088 28
17671 22086 22089 28
17672 22086 22090 28
17673 22091 22092 28
17674 22091 22093 28
17675 22091 22094 28
17676 22091 22095 28
17677 22096 22097 28
17678 22096 22098 28
17679 22096 22099 28
17680 22096 22100 28
17681 22101 22102 28
17682 22101 22103 28
17683 22101 22104 28
17684 22101 22105 28
17685 22106 22107 28
17686 22106 22108 28
17687 22106 22109 28
17688 22106 22110 28
17689 22111 22112 28
17690 22111 22113 28
17691 22111 22114 28
17692 22111 22115 28
17693 22116 22117 28
17694 22116 22118 28
17695 22116 22119 28
17696 22116 22120 28
17697 22121 22122 28
17698 22121 22123 28
17699 22121 22124 28
17700 22121 22125 28
17701 22126 22127 28
17702 22126 22128 28
17703 22126 22129 28
17704 22126 22130 28
17705 22131 22132 28
17706 22131 22133 28
17707 22131 22134 28
17708 22131 22135 28
17709 22136 22137 28
17710 22136 22138 28
17711 22136 22139 28
17712 22136 22140 28
17713 22141 22142 28
17714 22141 22143 28
17715 22141 22144 28
17716 22141 22145 28
17717 22146 22147 28
17718 22146 22148 28
17719 22146 22149 28
17720 22146 22150 28
17721 22151 22152 28
17722 22151 22153 28
17723 22151 22154 28
17724 22151 22155 28
17725 22156 22157 28
17726 22156 22158 28
17727 22156 22159 28
17728 22156 22160 28
17729 22161 22162 28
17730 22161 22163 28
17731 22161 22164 28
17732 22161 22165 28
17733 22166 22167 28
17734 22166 22168 28
17735 22166 22169 28
17736 22166 22170 28
17737 22171 22172 28
17738 22171 22173 28
17739 22171 22174 28
17740 22171 22175 28
17741 22176 22177 28
17742 22176 22178 28
17743 22176 22179 28
17744 22176 22180 28
17745 22181 22182 28
17746 22181 22183 28
17747 22181 22184 28
17748 22181 22185 28
17749 22186 22187 28
17750 22186 22188 28
17751 22186 22189 28
17752 22186 22190 28
17753 22191 22192 28
17754 22191 22193 28
17755 22191 22194 28
17756 22191 22195 28
17757 22196 22197 28
17758 22196 22198 28
17759 22196 22199 28
17760 22196 22200 28
17761 22201 22202 28
17762 22201 22203 28
17763 22201 22204 28
17764 22201 22205 28
17765 22206 22207 28
17766 22206 22208 28
17767 22206 22209 28
17768 22206 22210 28
17769 22211 22212 28
17770 22211 22213 28
17771 22211 22214 28
17772 22211 22215 28
17773 22216 22217 28
17774 22216 22218 28
17775 22216 22219 28
17776 22216 22220 28
17777 22221 22222 28
17778 22221 22223 28
17779 22221 22224 28
17780 22221 22225 28
17781 22226 22227 28
17782 22226 22228 28
17783 22226 22229 28
17784 22226 22230 28
17785 22231 22232 28
17786 22231 22233 28
17787 22231 22234 28
17788 22231 22235 28
17789 22236 22237 28
17790 22236 22238 28
17791 22236 22239 28
17792 22236 22240 28
17793 22241 22242 28
17794 22241 22243 28
17795 22241 22244 28
17796 22241 22245 28
17797 22246 22247 28
17798 22246 22248 28
17799 22246 22249 28
17800 22246 22250 28
17801 22251 22252 28
17802 22251 22253 28
17803 22251 22254 28
17804 22251 22255 28
17805 22256 22257 28
17806 22256 22258 28
17807 22256 22259 28
17808 22256 22260 28
17809 22261 22262 28
17810 22261 22263 28
17811 22261 22264 28
17812 22261 22265 28
17813 22266 22267 28
17814 22266 22268 28
17815 22266 22269 28
17816 22266 22270 28
17817 22271 22272 28
17818 22271 22273 28
17819 22271 22274 28
17820 22271 22275 28
17821 22276 22277 28
17822 22276 22278 28
17823 22276 22279 28
17824 22276 22280 28
17825 22281 22282 28
17826 22281 22283 28
17827 22281 22284 28
17828 22281 22285 28
17829 22286 22287 28
17830 22286 22288 28
17831 22286 22289 28
17832 22286 22290 28
17833 22291 22292 28
17834 22291 22293 28
17835 22291 22294 28
17836 22291 22295 28
17837 22296 22297 28
17838 22296 22298 28
17839 22296 22299 28
17840 22296 22300 28
17841 22301 22302 28
17842 22301 22303 28
17843 22301 22304 28
17844 22301 22305 28
17845 22306 22307 28
17846 22306 22308 28
17847 22306 22309 28
17848 22306 22310 28
17849 22311 22312 28
17850 22311 22313 28
17851 22311 22314 28
17852 22311 22315 28
17853 22316 22317 28
17854 22316 22318 28
17855 22316 22319 28
17856 22316 22320 28
17857 22321 22322 28
17858 22321 22323 28
17859 22321 22324 28
17860 22321 22325 28
17861 22326 22327 28
17862 22326 22328 28
17863 22326 22329 28
17864 22326 22330 28
17865 22331 22332 28
17866 22331 22333 28
17867 22331 22334 28
17868 22331 22335 28
17869 22336 22337 28
17870 22336 22338 28
17871 22336 22339 28
17872 22336 22340 28
17873 22341 22342 28
17874 22341 22343 28
17875 22341 22344 28
17876 22341 22345 28
17877 22346 22347 28
17878 22346 22348 28
17879 22346 22349 28
17880 22346 22350 28
17881 22351 22352 28
17882 22351 22353 28
17883 22351 22354 28
17884 22351 22355 28
17885 22356 22357 28
17886 22356 22358 28
17887 22356 22359 28
17888 22356 22360 28
17889 22361 22362 28
17890 22361 22363 28
17891 22361 22364 28
17892 22361 22365 28
17893 22366 22367 28
17894 22366 22368 28
17895 22366 22369 28
17896 22366 22370 28
17897 22371 22372 28
17898 22371 22373 28
17899 22371 22374 28
17900 22371 22375 28
17901 22376 22377 28
17902 22376 22378 28
17903 22376 22379 28
17904 22376 22380 28
17905 22381 22382 28
17906 22381 22383 28
17907 22381 22384 28
17908 22381 22385 28
17909 22386 22387 28
17910 22386 22388 28
17911 22386 22389 28
17912 22386 22390 28
17913 22391 22392 28
17914 22391 22393 28
17915 22391 22394 28
17916 22391 22395 28
17917 22396 22397 28
17918 22396 22398 28
17919 22396 22399 28
17920 22396 22400 28
17921 22401 22402 28
17922 22401 22403 28
17923 22401 22404 28
17924 22401 22405 28
17925 22406 22407 28
17926 22406 22408 28
17927 22406 22409 28
17928 22406 22410 28
17929 22411 22412 28
17930 22411 22413 28
17931 22411 22414 28
17932 22411 22415 28
17933 22416 22417 28
17934 22416 22418 28
17935 22416 22419 28
17936 22416 22420 28
17937 22421 22422 28
17938 22421 22423 28
17939 22421 22424 28
17940 22421 22425 28
17941 22426 22427 28
17942 22426 22428 28
17943 22426 22429 28
17944 22426 22430 28
17945 22431 22432 28
17946 22431 22433 28
17947 22431 22434 28
17948 22431 22435 28
17949 22436 22437 28
17950 22436 22438 28
17951 22436 22439 28
17952 22436 22440 28
17953 22441 22442 28
17954 22441 22443 28
17955 22441 22444 28
17956 22441 22445 28
17957 22446 22447 28
17958 22446 22448 28
17959 22446 22449 28
17960 22446 22450 28
17961 22451 22452 28
17962 22451 22453 28
17963 22451 22454 28
17964 22451 22455 28
17965 22456 22457 28
17966 22456 22458 28
17967 22456 22459 28
17968 22456 22460 28
17969 22461 22462 28
17970 22461 22463 28
17971 22461 22464 28
17972 22461 22465 28
17973 22466 22467 28
17974 22466 22468 28
17975 22466 22469 28
17976 22466 22470 28
17977 22471 22472 28
17978 22471 22473 28
17979 22471 22474 28
17980 22471 22475 28
17981 22476 22477 28
17982 22476 22478 28
17983 22476 22479 28
17984 22476 22480 28
17985 22481 22482 28
17986 22481 22483 28
17987 22481 22484 28
17988 22481 22485 28
17989 22486 22487 28
17990 22486 22488 28
17991 22486 22489 28
17992 22486 22490 28
17993 22491 22492 28
17994 22491 22493 28
17995 22491 22494 28
17996 22491 22495 28
17997 22496 22497 28
17998 22496 22498 28
17999 22496 22499 28
18000 22496 22500 28
18001 22501 22502 28
18002 22501 22503 28
18003 22501 22504 28
18004 22501 22505 28
18005 22506 22507 28
18006 22506 22508 28
18007 22506 22509 28
18008 22506 22510 28
18009 22511 22512 28
18010 22511 22513 28
18011 22511 22514 28
18012 22511 22515 28
18013 22516 22517 28
18014 22516 22518 28
18015 22516 22519 28
18016 22516 22520 28
18017 22521 22522 28
18018 22521 22523 28
18019 22521 22524 28
18020 22521 22525 28
18021 22526 22527 28
18022 22526 22528 28
18023 22526 22529 28
18024 22526 22530 28
18025 22531 22532 28
18026 22531 22533 28
18027 22531 22534 28
18028 22531 22535 28
18029 22536 22537 28
18030 22536 22538 28
18031 22536 22539 28
18032 22536 22540 28
18033 22541 22542 28
18034 22541 22543 28
18035 22541 22544 28
18036 22541 22545 28
18037 22546 22547 28
18038 22546 22548 28
18039 22546 22549 28
18040 22546 22550 28
18041 22551 22552 28
18042 22551 22553 28
18043 22551 22554 28
18044 22551 22555 28
18045 22556 22557 28
18046 22556 22558 28
18047 22556 22559 28
18048 22556 22560 28
18049 22561 22562 28
18050 22561 22563 28
18051 22561 22564 28
18052 22561 22565 28
18053 22566 22567 28
18054 22566 22568 28
18055 22566 22569 28
18056 22566 22570 28
18057 22571 22572 28
18058 22571 22573 28
18059 22571 22574 28
18060 22571 22575 28
18061 22576 22577 28
18062 22576 22578 28
18063 22576 22579 28
18064 22576 22580 28
18065 22581 22582 28
18066 22581 22583 28
18067 22581 22584 28
18068 22581 22585 28
18069 22586 22587 28
18070 22586 22588 28
18071 22586 22589 28
18072 22586 22590 28
18073 22591 22592 28
18074 22591 22593 28
18075 22591 22594 28
18076 22591 22595 28
18077 22596 22597 28
18078 22596 22598 28
18079 22596 22599 28
18080 22596 22600 28
18081 22601 22602 28
18082 22601 22603 28
18083 22601 22604 28
18084 22601 22605 28
18085 22606 22607 28
18086 22606 22608 28
18087 22606 22609 28
18088 22606 22610 28
18089 22611 22612 28
18090 22611 22613 28
18091 22611 22614 28
18092 22611 22615 28
18093 22616 22617 28
18094 22616 22618 28
18095 22616 22619 28
18096 22616 22620 28
18097 22621 22622 28
18098 22621 22623 28
18099 22621 22624 28
18100 22621 22625 28
18101 22626 22627 28
18102 22626 22628 28
18103 22626 22629 28
18104 22626 22630 28
18105 22631 22632 28
18106 22631 22633 28
18107 22631 22634 28
18108 22631 22635 28
18109 22636 22637 28
18110 22636 22638 28
18111 22636 22639 28
18112 22636 22640 28
18113 22641 22642 28
18114 22641 22643 28
18115 22641 22644 28
18116 22641 22645 28
18117 22646 22647 28
18118 22646 22648 28
18119 22646 22649 28
18120 22646 22650 28
18121 22651 22652 28
18122 22651 22653 28
18123 22651 22654 28
18124 22651 22655 28
18125 22656 22657 28
18126 22656 22658 28
18127 22656 22659 28
18128 22656 22660 28
18129 22661 22662 28
18130 22661 22663 28
18131 22661 22664 28
18132 22661 22665 28
18133 22666 22667 28
18134 22666 22668 28
18135 22666 22669 28
18136 22666 22670 28
18137 22671 22672 28
18138 22671 22673 28
18139 22671 22674 28
18140 22671 22675 28
18141 22676 22677 28
18142 22676 22678 28
18143 22676 22679 28
18144 22676 22680 28
18145 22681 22682 28
18146 22681 22683 28
18147 22681 22684 28
18148 22681 22685 28
18149 22686 22687 28
18150 22686 22688 28
18151 22686 22689 28
18152 22686 22690 28
18153 22691 22692 28
18154 22691 22693 28
18155 22691 22694 28
18156 22691 22695 28
18157 22696 22697 28
18158 22696 22698 28
18159 22696 22699 28
18160 22696 22700 28
18161 22701 22702 28
18162 22701 22703 28
18163 22701 22704 28
18164 22701 22705 28
18165 22706 22707 28
18166 22706 22708 28
18167 22706 22709 28
18168 22706 22710 28
18169 22711 22712 28
18170 22711 22713 28
18171 22711 22714 28
18172 22711 22715 28
18173 22716 22717 28
18174 22716 22718 28
18175 22716 22719 28
18176 22716 22720 28
18177 22721 22722 28
18178 22721 22723 28
18179 22721 22724 28
18180 22721 22725 28
18181 22726 22727 28
18182 22726 22728 28
18183 22726 22729 28
18184 22726 22730 28
18185 22731 22732 28
18186 22731 22733 28
18187 22731 22734 28
18188 22731 22735 28
18189 22736 22737 28
18190 22736 22738 28
18191 22736 22739 28
18192 22736 22740 28
18193 22741 22742 28
18194 22741 22743 28
18195 22741 22744 28
18196 22741 22745 28
18197 22746 22747 28
18198 22746 22748 28
18199 22746 22749 28
18200 22746 22750 28
18201 22751 22752 28
18202 22751 22753 28
18203 22751 22754 28
18204 22751 22755 28
18205 22756 22757 28
18206 22756 22758 28
18207 22756 22759 28
18208 22756 22760 28
18209 22761 22762 28
18210 22761 22763 28
18211 22761 22764 28
18212 22761 22765 28
18213 22766 22767 28
18214 22766 22768 28
18215 22766 22769 28
18216 22766 22770 28
18217 22771 22772 28
18218 22771 22773 28
18219 22771 22774 28
18220 22771 22775 28
18221 22776 22777 28
18222 22776 22778 28
18223 22776 22779 28
18224 22776 22780 28
18225 22781 22782 28
18226 22781 22783 28
18227 22781 22784 28
18228 22781 22785 28
18229 22786 22787 28
18230 22786 22788 28
18231 22786 22789 28
18232 22786 22790 28
18233 22791 22792 28
18234 22791 22793 28
18235 22791 22794 28
18236 22791 22795 28
18237 22796 22797 28
18238 22796 22798 28
18239 22796 22799 28
18240 22796 22800 28
18241 22801 22802 28
18242 22801 22803 28
18243 22801 22804 28
18244 22801 22805 28
18245 22806 22807 28
18246 22806 22808 28
18247 22806 22809 28
18248 22806 22810 28
18249 22811 22812 28
18250 22811 22813 28
18251 22811 22814 28
18252 22811 22815 28
18253 22816 22817 28
18254 22816 22818 28
18255 22816 22819 28
18256 22816 22820 28
18257 22821 22822 28
18258 22821 22823 28
18259 22821 22824 28
18260 22821 22825 28
18261 22826 22827 28
18262 22826 22828 28
18263 22826 22829 28
18264 22826 22830 28
18265 22831 22832 28
18266 22831 22833 28
18267 22831 22834 28
18268 22831 22835 28
18269 22836 22837 28
18270 22836 22838 28
18271 22836 22839 28
18272 22836 22840 28
18273 22841 22842 28
18274 22841 22843 28
18275 22841 22844 28
18276 22841 22845 28
18277 22846 22847 28
18278 22846 22848 28
18279 22846 22849 28
18280 22846 22850 28
18281 22851 22852 28
18282 22851 22853 28
18283 22851 22854 28
18284 22851 22855 28
18285 22856 22857 28
18286 22856 22858 28
18287 22856 22859 28
18288 22856 22860 28
18289 22861 22862 28
18290 22861 22863 28
18291 22861 22864 28
18292 22861 22865 28
18293 22866 22867 28
18294 22866 22868 28
18295 22866 22869 28
18296 22866 22870 28
18297 22871 22872 28
18298 22871 22873 28
18299 22871 22874 28
18300 22871 22875 28
18301 22876 22877 28
18302 22876 22878 28
18303 22876 22879 28
18304 22876 22880 28
18305 22881 22882 28
18306 22881 22883 28
18307 22881 22884 28
18308 22881 22885 28
18309 22886 22887 28
18310 22886 22888 28
18311 22886 22889 28
18312 22886 22890 28
18313 22891 22892 28
18314 22891 22893 28
18315 22891 22894 28
18316 22891 22895 28
18317 22896 22897 28
18318 22896 22898 28
18319 22896 22899 28
18320 22896 22900 28
18321 22901 22902 28
18322 22901 22903 28
18323 22901 22904 28
18324 22901 22905 28
18325 22906 22907 28
18326 22906 22908 28
18327 22906 22909 28
18328 22906 22910 28
18329 22911 22912 28
18330 22911 22913 28
18331 22911 22914 28
18332 22911 22915 28
18333 22916 22917 28
18334 22916 22918 28
18335 22916 22919 28
18336 22916 22920 28
18337 22921 22922 28
18338 22921 22923 28
18339 22921 22924 28
18340 22921 22925 28
18341 22926 22927 28
18342 22926 22928 28
18343 22926 22929 28
18344 22926 22930 28
18345 22931 22932 28
18346 22931 22933 28
18347 22931 22934 28
18348 22931 22935 28
18349 22936 22937 28
18350 22936 22938 28
18351 22936 22939 28
18352 22936 22940 28
18353 22941 22942 28
18354 22941 22943 28
18355 22941 22944 28
18356 22941 22945 28
18357 22946 22947 28
18358 22946 22948 28
18359 22946 22949 28
18360 22946 22950 28
18361 22951 22952 28
18362 22951 22953 28
18363 22951 22954 28
18364 22951 22955 28
18365 22956 22957 28
18366 22956 22958 28
18367 22956 22959 28
18368 22956 22960 28
18369 22961 22962 28
18370 22961 22963 28
18371 22961 22964 28
18372 22961 22965 28
18373 22966 22967 28
18374 22966 22968 28
18375 22966 22969 28
18376 22966 22970 28
18377 22971 22972 28
18378 22971 22973 28
18379 22971 22974 28
18380 22971 22975 28
18381 22976 22977 28
18382 22976 22978 28
18383 22976 22979 28
18384 22976 22980 28
18385 22981 22982 28
18386 22981 22983 28
18387 22981 22984 28
18388 22981 22985 28
18389 22986 22987 28
18390 22986 22988 28
18391 22986 22989 28
18392 22986 22990 28
18393 22991 22992 28
18394 22991 22993 28
18395 22991 22994 28
18396 22991 22995 28
18397 22996 22997 28
18398 22996 22998 28
18399 22996 22999 28
18400 22996 23000 28
18401 23001 23002 28
18402 23001 23003 28
18403 23001 23004 28
18404 23001 23005 28
18405 23006 23007 28
18406 23006 23008 28
18407 23006 23009 28
18408 23006 23010 28
18409 23011 23012 28
18410 23011 23013 28
18411 23011 23014 28
18412 23011 23015 28
18413 23016 23017 28
18414 23016 23018 28
18415 23016 23019 28
18416 23016 23020 28
18417 23021 23022 28
18418 23021 23023 28
18419 23021 23024 28
18420 23021 23025 28
18421 23026 23027 28
18422 23026 23028 28
18423 23026 23029 28
18424 23026 23030 28
18425 23031 23032 28
18426 23031 23033 28
18427 23031 23034 28
18428 23031 23035 28
18429 23036 23037 28
18430 23036 23038 28
18431 23036 23039 28
18432 23036 23040 28
18433 23041 23042 28
18434 23041 23043 28
18435 23041 23044 28
18436 23041 23045 28
18437 23046 23047 28
18438 23046 23048 28
18439 23046 23049 28
18440 23046 23050 28
18441 23051 23052 28
18442 23051 23053 28
18443 23051 23054 28
18444 23051 23055 28
18445 23056 23057 28
18446 23056 23058 28
18447 23056 23059 28
18448 23056 23060 28
18449 23061 23062 28
18450 23061 23063 28
18451 23061 23064 28
18452 23061 23065 28
18453 23066 23067 28
18454 23066 23068 28
18455 23066 23069 28
18456 23066 23070 28
18457 23071 23072 28
18458 23071 23073 28
18459 23071 23074 28
18460 23071 23075 28
18461 23076 23077 28
18462 23076 23078 28
18463 23076 23079 28
18464 23076 23080 28
18465 23081 23082 28
18466 23081 23083 28
18467 23081 23084 28
18468 23081 23085 28
18469 23086 23087 28
18470 23086 23088 28
18471 23086 23089 28
18472 23086 23090 28
18473 23091 23092 28
18474 23091 23093 28
18475 23091 23094 28
18476 23091 23095 28
18477 23096 23097 28
18478 23096 23098 28
18479 23096 23099 28
18480 23096 23100 28
18481 23101 23102 28
18482 23101 23103 28
18483 23101 23104 28
18484 23101 23105 28
18485 23106 23107 28
18486 23106 23108 28
18487 23106 23109 28
18488 23106 23110 28
18489 23111 23112 28
18490 23111 23113 28
18491 23111 23114 28
18492 23111 23115 28
18493 23116 23117 28
18494 23116 23118 28
18495 23116 23119 28
18496 23116 23120 28
18497 23121 23122 28
18498 23121 23123 28
18499 23121 23124 28
18500 23121 23125 28
18501 23126 23127 28
18502 23126 23128 28
18503 23126 23129 28
18504 23126 23130 28
18505 23131 23132 28
18506 23131 23133 28
18507 23131 23134 28
18508 23131 23135 28
18509 23136 23137 28
18510 23136 23138 28
18511 23136 23139 28
18512 23136 23140 28
18513 23141 23142 28
18514 23141 23143 28
18515 23141 23144 28
18516 23141 23145 28
18517 23146 23147 28
18518 23146 23148 28
18519 23146 23149 28
18520 23146 23150 28
18521 23151 23152 28
18522 23151 23153 28
18523 23151 23154 28
18524 23151 23155 28
18525 23156 23157 28
18526 23156 23158 28
18527 23156 23159 28
18528 23156 23160 28
18529 23161 23162 28
18530 23161 23163 28
18531 23161 23164 28
18532 23161 23165 28
18533 23166 23167 28
18534 23166 23168 28
18535 23166 23169 28
18536 23166 23170 28
18537 23171 23172 28
18538 23171 23173 28
18539 23171 23174 28
18540 23171 23175 28
18541 23176 23177 28
18542 23176 23178 28
18543 23176 23179 28
18544 23176 23180 28
18545 23181 23182 28
18546 23181 23183 28
18547 23181 23184 28
18548 23181 23185 28
18549 23186 23187 28
18550 23186 23188 28
18551 23186 23189 28
18552 23186 23190 28
18553 23191 23192 28
18554 23191 23193 28
18555 23191 23194 28
18556 23191 23195 28
18557 23196 23197 28
18558 23196 23198 28
18559 23196 23199 28
18560 23196 23200 28
18561 23201 23202 28
18562 23201 23203 28
18563 23201 23204 28
18564 23201 23205 28
18565 23206 23207 28
18566 23206 23208 28
18567 23206 23209 28
18568 23206 23210 28
18569 23211 23212 28
18570 23211 23213 28
18571 23211 23214 28
18572 23211 23215 28
18573 23216 23217 28
18574 23216 23218 28
18575 23216 23219 28
18576 23216 23220 28
18577 23221 23222 28
18578 23221 23223 28
18579 23221 23224 28
18580 23221 23225 28
18581 23226 23227 28
18582 23226 23228 28
18583 23226 23229 28
18584 23226 23230 28
18585 23231 23232 28
18586 23231 23233 28
18587 23231 23234 28
18588 23231 23235 28
18589 23236 23237 28
18590 23236 23238 28
18591 23236 23239 28
18592 23236 23240 28
18593 23241 23242 28
18594 23241 23243 28
18595 23241 23244 28
18596 23241 23245 28
18597 23246 23247 28
18598 23246 23248 28
18599 23246 23249 28
18600 23246 23250 28
18601 23251 23252 28
18602 23251 23253 28
18603 23251 23254 28
18604 23251 23255 28
18605 23256 23257 28
18606 23256 23258 28
18607 23256 23259 28
18608 23256 23260 28
18609 23261 23262 28
18610 23261 23263 28
18611 23261 23264 28
18612 23261 23265 28
18613 23266 23267 28
18614 23266 23268 28
18615 23266 23269 28
18616 23266 23270 28
18617 23271 23272 28
18618 23271 23273 28
18619 23271 23274 28
18620 23271 23275 28
18621 23276 23277 28
18622 23276 23278 28
18623 23276 23279 28
18624 23276 23280 28
18625 23281 23282 28
18626 23281 23283 28
18627 23281 23284 28
18628 23281 23285 28
18629 23286 23287 28
18630 23286 23288 28
18631 23286 23289 28
18632 23286 23290 28
18633 23291 23292 28
18634 23291 23293 28
18635 23291 23294 28
18636 23291 23295 28
18637 23296 23297 28
18638 23296 23298 28
18639 23296 23299 28
18640 23296 23300 28
18641 23301 23302 28
18642 23301 23303 28
18643 23301 23304 28
18644 23301 23305 28
18645 23306 23307 28
18646 23306 23308 28
18647 23306 23309 28
18648 23306 23310 28
18649 23311 23312 28
18650 23311 23313 28
18651 23311 23314 28
18652 23311 23315 28
18653 23316 23317 28
18654 23316 23318 28
18655 23316 23319 28
18656 23316 23320 28
18657 23321 23322 28
18658 23321 23323 28
18659 23321 23324 28
18660 23321 23325 28
18661 23326 23327 28
18662 23326 23328 28
18663 23326 23329 28
18664 23326 23330 28
18665 23331 23332 28
18666 23331 23333 28
18667 23331 23334 28
18668 23331 23335 28
18669 23336 23337 28
18670 23336 23338 28
18671 23336 23339 28
18672 23336 23340 28
18673 23341 23342 28
18674 23341 23343 28
18675 23341 23344 28
18676 23341 23345 28
18677 23346 23347 28
18678 23346 23348 28
18679 23346 23349 28
18680 23346 23350 28
18681 23351 23352 28
18682 23351 23353 28
18683 23351 23354 28
18684 23351 23355 28
18685 23356 23357 28
18686 23356 23358 28
18687 23356 23359 28
18688 23356 23360 28
18689 23361 23362 28
18690 23361 23363 28
18691 23361 23364 28
18692 23361 23365 28
18693 23366 23367 28
18694 23366 23368 28
18695 23366 23369 28
18696 23366 23370 28
18697 23371 23372 28
18698 23371 23373 28
18699 23371 23374 28
18700 23371 23375 28
18701 23376 23377 28
18702 23376 23378 28
18703 23376 23379 28
18704 23376 23380 28
18705 23381 23382 28
18706 23381 23383 28
18707 23381 23384 28
18708 23381 23385 28
18709 23386 23387 28
18710 23386 23388 28
18711 23386 23389 28
18712 23386 23390 28
18713 23391 23392 28
18714 23391 23393 28
18715 23391 23394 28
18716 23391 23395 28
18717 23396 23397 28
18718 23396 23398 28
18719 23396 23399 28
18720 23396 23400 28
18721 23401 23402 28
18722 23401 23403 28
18723 23401 23404 28
18724 23401 23405 28
18725 23406 23407 28
18726 23406 23408 28
18727 23406 23409 28
18728 23406 23410 28
18729 23411 23412 28
18730 23411 23413 28
18731 23411 23414 28
18732 23411 23415 28
18733 23416 23417 28
18734 23416 23418 28
18735 23416 23419 28
18736 23416 23420 28
18737 23421 23422 28
18738 23421 23423 28
18739 23421 23424 28
18740 23421 23425 28
18741 23426 23427 28
18742 23426 23428 28
18743 23426 23429 28
18744 23426 23430 28
18745 23431 23432 28
18746 23431 23433 28
18747 23431 23434 28
18748 23431 23435 28
18749 23436 23437 28
18750 23436 23438 28
18751 23436 23439 28
18752 23436 23440 28
18753 23441 23442 28
18754 23441 23443 28
18755 23441 23444 28
18756 23441 23445 28
18757 23446 23447 28
18758 23446 23448 28
18759 23446 23449 28
18760 23446 23450 28
18761 23451 23452 28
18762 23451 23453 28
18763 23451 23454 28
18764 23451 23455 28
18765 23456 23457 28
18766 23456 23458 28
18767 23456 23459 28
18768 23456 23460 28
18769 23461 23462 28
18770 23461 23463 28
18771 23461 23464 28
18772 23461 23465 28
18773 23466 23467 28
18774 23466 23468 28
18775 23466 23469 28
18776 23466 23470 28
18777 23471 23472 28
18778 23471 23473 28
18779 23471 23474 28
18780 23471 23475 28
18781 23476 23477 28
18782 23476 23478 28
18783 23476 23479 28
18784 23476 23480 28
18785 23481 23482 28
18786 23481 23483 28
18787 23481 23484 28
18788 23481 23485 28
18789 23486 23487 28
18790 23486 23488 28
18791 23486 23489 28
18792 23486 23490 28
18793 23491 23492 28
18794 23491 23493 28
18795 23491 23494 28
18796 23491 23495 28
18797 23496 23497 28
18798 23496 23498 28
18799 23496 23499 28
18800 23496 23500 28
18801 23501 23502 28
18802 23501 23503 28
18803 23501 23504 28
18804 23501 23505 28
18805 23506 23507 28
18806 23506 23508 28
18807 23506 23509 28
18808 23506 23510 28
18809 23511 23512 28
18810 23511 23513 28
18811 23511 23514 28
18812 23511 23515 28
18813 23516 23517 28
18814 23516 23518 28
18815 23516 23519 28
18816 23516 23520 28
18817 23521 23522 28
18818 23521 23523 28
18819 23521 23524 28
18820 23521 23525 28
18821 23526 23527 28
18822 23526 23528 28
18823 23526 23529 28
18824 23526 23530 28
18825 23531 23532 28
18826 23531 23533 28
18827 23531 23534 28
18828 23531 23535 28
18829 23536 23537 28
18830 23536 23538 28
18831 23536 23539 28
18832 23536 23540 28
18833 23541 23542 28
18834 23541 23543 28
18835 23541 23544 28
18836 23541 23545 28
18837 23546 23547 28
18838 23546 23548 28
18839 23546 23549 28
18840 23546 23550 28
18841 23551 23552 28
18842 23551 23553 28
18843 23551 23554 28
18844 23551 23555 28
18845 23556 23557 28
18846 23556 23558 28
18847 23556 23559 28
18848 23556 23560 28
18849 23561 23562 28
18850 23561 23563 28
18851 23561 23564 28
18852 23561 23565 28
18853 23566 23567 28
18854 23566 23568 28
18855 23566 23569 28
18856 23566 23570 28
18857 23571 23572 28
18858 23571 23573 28
18859 23571 23574 28
18860 23571 23575 28
18861 23576 23577 28
18862 23576 23578 28
18863 23576 23579 28
18864 23576 23580 28
18865 23581 23582 28
18866 23581 23583 28
18867 23581 23584 28
18868 23581 23585 28
18869 23586 23587 28
18870 23586 23588 28
18871 23586 23589 28
18872 23586 23590 28
18873 23591 23592 28
18874 23591 23593 28
18875 23591 23594 28
18876 23591 23595 28
18877 23596 23597 28
18878 23596 23598 28
18879 23596 23599 28
18880 23596 23600 28
18881 23601 23602 28
18882 23601 23603 28
18883 23601 23604 28
18884 23601 23605 28
18885 23606 23607 28
18886 23606 23608 28
18887 23606 23609 28
18888 23606 23610 28
18889 23611 23612 28
18890 23611 23613 28
18891 23611 23614 28
18892 23611 23615 28
18893 23616 23617 28
18894 23616 23618 28
18895 23616 23619 28
18896 23616 23620 28
18897 23621 23622 28
18898 23621 23623 28
18899 23621 23624 28
18900 23621 23625 28
18901 23626 23627 28
18902 23626 23628 28
18903 23626 23629 28
18904 23626 23630 28
18905 23631 23632 28
18906 23631 23633 28
18907 23631 23634 28
18908 23631 23635 28
18909 23636 23637 28
18910 23636 23638 28
18911 23636 23639 28
18912 23636 23640 28
18913 23641 23642 28
18914 23641 23643 28
18915 23641 23644 28
18916 23641 23645 28
18917 23646 23647 28
18918 23646 23648 28
18919 23646 23649 28
18920 23646 23650 28
18921 23651 23652 28
18922 23651 23653 28
18923 23651 23654 28
18924 23651 23655 28
18925 23656 23657 28
18926 23656 23658 28
18927 23656 23659 28
18928 23656 23660 28
18929 23661 23662 28
18930 23661 23663 28
18931 23661 23664 28
18932 23661 23665 28
18933 23666 23667 28
18934 23666 23668 28
18935 23666 23669 28
18936 23666 23670 28
18937 23671 23672 28
18938 23671 23673 28
18939 23671 23674 28
18940 23671 23675 28
18941 23676 23677 28
18942 23676 23678 28
18943 23676 23679 28
18944 23676 23680 28
18945 23681 23682 28
18946 23681 23683 28
18947 23681 23684 28
18948 23681 23685 28
18949 23686 23687 28
18950 23686 23688 28
18951 23686 23689 28
18952 23686 23690 28
18953 23691 23692 28
18954 23691 23693 28
18955 23691 23694 28
18956 23691 23695 28
18957 23696 23697 28
18958 23696 23698 28
18959 23696 23699 28
18960 23696 23700 28
18961 23701 23702 28
18962 23701 23703 28
18963 23701 23704 28
18964 23701 23705 28
18965 23706 23707 28
18966 23706 23708 28
18967 23706 23709 28
18968 23706 23710 28
18969 23711 23712 28
18970 23711 23713 28
18971 23711 23714 28
18972 23711 23715 28
18973 23716 23717 28
18974 23716 23718 28
18975 23716 23719 28
18976 23716 23720 28
18977 23721 23722 28
18978 23721 23723 28
18979 23721 23724 28
18980 23721 23725 28
18981 23726 23727 28
18982 23726 23728 28
18983 23726 23729 28
18984 23726 23730 28
18985 23731 23732 28
18986 23731 23733 28
18987 23731 23734 28
18988 23731 23735 28
18989 23736 23737 28
18990 23736 23738 28
18991 23736 23739 28
18992 23736 23740 28
18993 23741 23742 28
18994 23741 23743 28
18995 23741 23744 28
18996 23741 23745 28
18997 23746 23747 28
18998 23746 23748 28
18999 23746 23749 28
19000 23746 23750 28
19001 23751 23752 28
19002 23751 23753 28
19003 23751 23754 28
19004 23751 23755 28
19005 23756 23757 28
19006 23756 23758 28
19007 23756 23759 28
19008 23756 23760 28
19009 23761 23762 28
19010 23761 23763 28
19011 23761 23764 28
19012 23761 23765 28
19013 23766 23767 28
19014 23766 23768 28
19015 23766 23769 28
19016 23766 23770 28
19017 23771 23772 28
19018 23771 23773 28
19019 23771 23774 28
19020 23771 23775 28
19021 23776 23777 28
19022 23776 23778 28
19023 23776 23779 28
19024 23776 23780 28
19025 23781 23782 28
19026 23781 23783 28
19027 23781 23784 28
19028 23781 23785 28
19029 23786 23787 28
19030 23786 23788 28
19031 23786 23789 28
19032 23786 23790 28
19033 23791 23792 28
19034 23791 23793 28
19035 23791 23794 28
19036 23791 23795 28
19037 23796 23797 28
19038 23796 23798 28
19039 23796 23799 28
19040 23796 23800 28
19041 23801 23802 28
19042 23801 23803 28
19043 23801 23804 28
19044 23801 23805 28
19045 23806 23807 28
19046 23806 23808 28
19047 23806 23809 28
19048 23806 23810 28
19049 23811 23812 28
19050 23811 23813 28
19051 23811 23814 28
19052 23811 23815 28
19053 23816 23817 28
19054 23816 23818 28
19055 23816 23819 28
19056 23816 23820 28
19057 23821 23822 28
19058 23821 23823 28
19059 23821 23824 28
19060 23821 23825 28
19061 23826 23827 28
19062 23826 23828 28
19063 23826 23829 28
19064 23826 23830 28
19065 23831 23832 28
19066 23831 23833 28
19067 23831 23834 28
19068 23831 23835 28
19069 23836 23837 28
19070 23836 23838 28
19071 23836 23839 28
19072 23836 23840 28
19073 23841 23842 28
19074 23841 23843 28
19075 23841 23844 28
19076 23841 23845 28
19077 23846 23847 28
19078 23846 23848 28
19079 23846 23849 28
19080 23846 23850 28
19081 23851 23852 28
19082 23851 23853 28
19083 23851 23854 28
19084 23851 23855 28
19085 23856 23857 28
19086 23856 23858 28
19087 23856 23859 28
19088 23856 23860 28
19089 23861 23862 28
19090 23861 23863 28
19091 23861 23864 28
19092 23861 23865 28
19093 23866 23867 28
19094 23866 23868 28
19095 23866 23869 28
19096 23866 23870 28
19097 23871 23872 28
19098 23871 23873 28
19099 23871 23874 28
19100 23871 23875 28
19101 23876 23877 28
19102 23876 23878 28
19103 23876 23879 28
19104 23876 23880 28
19105 23881 23882 28
19106 23881 23883 28
19107 23881 23884 28
19108 23881 23885 28
19109 23886 23887 28
19110 23886 23888 28
19111 23886 23889 28
19112 23886 23890 28
19113 23891 23892 28
19114 23891 23893 28
19115 23891 23894 28
19116 23891 23895 28
19117 23896 23897 28
19118 23896 23898 28
19119 23896 23899 28
19120 23896 23900 28
19121 23901 23902 28
19122 23901 23903 28
19123 23901 23904 28
19124 23901 23905 28
19125 23906 23907 28
19126 23906 23908 28
19127 23906 23909 28
19128 23906 23910 28
19129 23911 23912 28
19130 23911 23913 28
19131 23911 23914 28
19132 23911 23915 28
19133 23916 23917 28
19134 23916 23918 28
19135 23916 23919 28
19136 23916 23920 28
19137 23921 23922 28
19138 23921 23923 28
19139 23921 23924 28
19140 23921 23925 28
19141 23926 23927 28
19142 23926 23928 28
19143 23926 23929 28
19144 23926 23930 28
19145 23931 23932 28
19146 23931 23933 28
19147 23931 23934 28
19148 23931 23935 28
19149 23936 23937 28
19150 23936 23938 28
19151 23936 23939 28
19152 23936 23940 28
19153 23941 23942 28
19154 23941 23943 28
19155 23941 23944 28
19156 23941 23945 28
19157 23946 23947 28
19158 23946 23948 28
19159 23946 23949 28
19160 23946 23950 28
19161 23951 23952 28
19162 23951 23953 28
19163 23951 23954 28
19164 23951 23955 28
19165 23956 23957 28
19166 23956 23958 28
19167 23956 23959 28
19168 23956 23960 28
19169 23961 23962 28
19170 23961 23963 28
19171 23961 23964 28
19172 23961 23965 28
19173 23966 23967 28
19174 23966 23968 28
19175 23966 23969 28
19176 23966 23970 28
19177 23971 23972 28
19178 23971 23973 28
19179 23971 23974 28
19180 23971 23975 28
19181 23976 23977 28
19182 23976 23978 28
19183 23976 23979 28
19184 23976 23980 28
19185 23981 23982 28
19186 23981 23983 28
19187 23981 23984 28
19188 23981 23985 28
19189 23986 23987 28
19190 23986 23988 28
19191 23986 23989 28
19192 23986 23990 28
19193 23991 23992 28
19194 23991 23993 28
19195 23991 23994 28
19196 23991 23995 28
19197 23996 23997 28
19198 23996 23998 28
19199 23996 23999 28
19200 23996 24000 28
19201 24001 24002 28
19202 24001 24003 28
19203 24001 24004 28
19204 24001 24005 28
19205 24006 24007 28
19206 24006 24008 28
19207 24006 24009 28
19208 24006 24010 28
19209 24011 24012 28
19210 24011 24013 28
19211 24011 24014 28
19212 24011 24015 28
19213 24016 24017 28
19214 24016 24018 28
19215 24016 24019 28
19216 24016 24020 28
19217 24021 24022 28
19218 24021 24023 28
19219 24021 24024 28
19220 24021 24025 28
19221 24026 24027 28
19222 24026 24028 28
19223 24026 24029 28
19224 24026 24030 28
19225 24031 24032 28
19226 24031 24033 28
19227 24031 24034 28
19228 24031 24035 28
19229 24036 24037 28
19230 24036 24038 28
19231 24036 24039 28
19232 24036 24040 28
19233 24041 24042 28
19234 24041 24043 28
19235 24041 24044 28
19236 24041 24045 28
19237 24046 24047 28
19238 24046 24048 28
19239 24046 24049 28
19240 24046 24050 28
19241 24051 24052 28
19242 24051 24053 28
19243 24051 24054 28
19244 24051 24055 28
19245 24056 24057 28
19246 24056 24058 28
19247 24056 24059 28
19248 24056 24060 28
19249 24061 24062 28
19250 24061 24063 28
19251 24061 24064 28
19252 24061 24065 28
19253 24066 24067 28
19254 24066 24068 28
19255 24066 24069 28
19256 24066 24070 28
19257 24071 24072 28
19258 24071 24073 28
19259 24071 24074 28
19260 24071 24075 28
19261 24076 24077 28
19262 24076 24078 28
19263 24076 24079 28
19264 24076 24080 28
19265 24081 24082 28
19266 24081 24083 28
19267 24081 24084 28
19268 24081 24085 28
19269 24086 24087 28
19270 24086 24088 28
19271 24086 24089 28
19272 24086 24090 28
19273 24091 24092 28
19274 24091 24093 28
19275 24091 24094 28
19276 24091 24095 28
19277 24096 24097 28
19278 24096 24098 28
19279 24096 24099 28
19280 24096 24100 28
19281 24101 24102 28
19282 24101 24103 28
19283 24101 24104 28
19284 24101 24105 28
19285 24106 24107 28
19286 24106 24108 28
19287 24106 24109 28
19288 24106 24110 28
19289 24111 24112 28
19290 24111 24113 28
19291 24111 24114 28
19292 24111 24115 28
19293 24116 24117 28
19294 24116 24118 28
19295 24116 24119 28
19296 24116 24120 28
19297 24121 24122 28
19298 24121 24123 28
19299 24121 24124 28
19300 24121 24125 28
19301 24126 24127 28
19302 24126 24128 28
19303 24126 24129 28
19304 24126 24130 28
19305 24131 24132 28
19306 24131 24133 28
19307 24131 24134 28
19308 24131 24135 28
19309 24136 24137 28
19310 24136 24138 28
19311 24136 24139 28
19312 24136 24140 28
19313 24141 24142 28
19314 24141 24143 28
19315 24141 24144 28
19316 24141 24145 28
19317 24146 24147 28
19318 24146 24148 28
19319 24146 24149 28
19320 24146 24150 28
19321 24151 24152 28
19322 24151 24153 28
19323 24151 24154 28
19324 24151 24155 28
19325 24156 24157 28
19326 24156 24158 28
19327 24156 24159 28
19328 24156 24160 28
19329 24161 24162 28
19330 24161 24163 28
19331 24161 24164 28
19332 24161 24165 28
19333 24166 24167 28
19334 24166 24168 28
19335 24166 24169 28
19336 24166 24170 28
19337 24171 24172 28
19338 24171 24173 28
19339 24171 24174 28
19340 24171 24175 28
19341 24176 24177 28
19342 24176 24178 28
19343 24176 24179 28
19344 24176 24180 28
19345 24181 24182 28
19346 24181 24183 28
19347 24181 24184 28
19348 24181 24185 28
19349 24186 24187 28
19350 24186 24188 28
19351 24186 24189 28
19352 24186 24190 28
19353 24191 24192 28
19354 24191 24193 28
19355 24191 24194 28
19356 24191 24195 28
19357 24196 24197 28
19358 24196 24198 28
19359 24196 24199 28
19360 24196 24200 28
19361 24201 24202 28
19362 24201 24203 28
19363 24201 24204 28
19364 24201 24205 28
19365 24206 24207 28
19366 24206 24208 28
19367 24206 24209 28
19368 24206 24210 28
19369 24211 24212 28
19370 24211 24213 28
19371 24211 24214 28
19372 24211 24215 28
19373 24216 24217 28
19374 24216 24218 28
19375 24216 24219 28
19376 24216 24220 28
19377 24221 24222 28
19378 24221 24223 28
19379 24221 24224 28
19380 24221 24225 28
19381 24226 24227 28
19382 24226 24228 28
19383 24226 24229 28
19384 24226 24230 28
19385 24231 24232 28
19386 24231 24233 28
19387 24231 24234 28
19388 24231 24235 28
19389 24236 24237 28
19390 24236 24238 28
19391 24236 24239 28
19392 24236 24240 28
19393 24241 24242 28
19394 24241 24243 28
19395 24241 24244 28
19396 24241 24245 28
19397 24246 24247 28
19398 24246 24248 28
19399 24246 24249 28
19400 24246 24250 28
19401 24251 24252 28
19402 24251 24253 28
19403 24251 24254 28
19404 24251 24255 28
19405 24256 24257 28
19406 24256 24258 28
19407 24256 24259 28
19408 24256 24260 28
19409 24261 24262 28
19410 24261 24263 28
19411 24261 24264 28
19412 24261 24265 28
19413 24266 24267 28
19414 24266 24268 28
19415 24266 24269 28
19416 24266 24270 28
19417 24271 24272 28
19418 24271 24273 28
19419 24271 24274 28
19420 24271 24275 28
19421 24276 24277 28
19422 24276 24278 28
19423 24276 24279 28
19424 24276 24280 28
19425 24281 24282 28
19426 24281 24283 28
19427 24281 24284 28
19428 24281 24285 28
19429 24286 24287 28
19430 24286 24288 28
19431 24286 24289 28
19432 24286 24290 28
19433 24291 24292 28
19434 24291 24293 28
19435 24291 24294 28
19436 24291 24295 28
19437 24296 24297 28
19438 24296 24298 28
19439 24296 24299 28
19440 24296 24300 28
19441 24301 24302 28
19442 24301 24303 28
19443 24301 24304 28
19444 24301 24305 28
19445 24306 24307 28
19446 24306 24308 28
19447 24306 24309 28
19448 24306 24310 28
19449 24311 24312 28
19450 24311 24313 28
19451 24311 24314 28
19452 24311 24315 28
19453 24316 24317 28
19454 24316 24318 28
19455 24316 24319 28
19456 24316 24320 28
19457 24321 24322 28
19458 24321 24323 28
19459 24321 24324 28
19460 24321 24325 28
19461 24326 24327 28
19462 24326 24328 28
19463 24326 24329 28
19464 24326 24330 28
19465 24331 24332 28
19466 24331 24333 28
19467 24331 24334 28
19468 24331 24335 28
19469 24336 24337 28
19470 24336 24338 28
19471 24336 24339 28
19472 24336 24340 28
19473 24341 24342 28
19474 24341 24343 28
19475 24341 24344 28
19476 24341 24345 28
19477 24346 24347 28
19478 24346 24348 28
19479 24346 24349 28
19480 24346 24350 28
19481 24351 24352 28
19482 24351 24353 28
19483 24351 24354 28
19484 24351 24355 28
19485 24356 24357 28
19486 24356 24358 28
19487 24356 24359 28
19488 24356 24360 28
19489 24361 24362 28
19490 24361 24363 28
19491 24361 24364 28
19492 24361 24365 28
19493 24366 24367 28
19494 24366 24368 28
19495 24366 24369 28
19496 24366 24370 28
19497 24371 24372 28
19498 24371 24373 28
19499 24371 24374 28
19500 24371 24375 28
19501 24376 24377 28
19502 24376 24378 28
19503 24376 24379 28
19504 24376 24380 28
19505 24381 24382 28
19506 24381 24383 28
19507 24381 24384 28
19508 24381 24385 28
19509 24386 24387 28
19510 24386 24388 28
19511 24386 24389 28
19512 24386 24390 28
19513 24391 24392 28
19514 24391 24393 28
19515 24391 24394 28
19516 24391 24395 28
19517 24396 24397 28
19518 24396 24398 28
19519 24396 24399 28
19520 24396 24400 28
19521 24401 24402 28
19522 24401 24403 28
19523 24401 24404 28
19524 24401 24405 28
19525 24406 24407 28
19526 24406 24408 28
19527 24406 24409 28
19528 24406 24410 28
19529 24411 24412 28
19530 24411 24413 28
19531 24411 24414 28
19532 24411 24415 28
19533 24416 24417 28
19534 24416 24418 28
19535 24416 24419 28
19536 24416 24420 28
19537 24421 24422 28
19538 24421 24423 28
19539 24421 24424 28
19540 24421 24425 28
19541 24426 24427 28
19542 24426 24428 28
19543 24426 24429 28
19544 24426 24430 28
19545 24431 24432 28
19546 24431 24433 28
19547 24431 24434 28
19548 24431 24435 28
19549 24436 24437 28
19550 24436 24438 28
19551 24436 24439 28
19552 24436 24440 28
19553 24441 24442 28
19554 24441 24443 28
19555 24441 24444 28
19556 24441 24445 28
19557 24446 24447 28
19558 24446 24448 28
19559 24446 24449 28
19560 24446 24450 28
19561 24451 24452 28
19562 24451 24453 28
19563 24451 24454 28
19564 24451 24455 28
19565 24456 24457 28
19566 24456 24458 28
19567 24456 24459 28
19568 24456 24460 28
19569 24461 24462 28
19570 24461 24463 28
19571 24461 24464 28
19572 24461 24465 28
19573 24466 24467 28
19574 24466 24468 28
19575 24466 24469 28
19576 24466 24470 28
19577 24471 24472 28
19578 24471 24473 28
19579 24471 24474 28
19580 24471 24475 28
19581 24476 24477 28
19582 24476 24478 28
19583 24476 24479 28
19584 24476 24480 28
19585 24481 24482 28
19586 24481 24483 28
19587 24481 24484 28
19588 24481 24485 28
19589 24486 24487 28
19590 24486 24488 28
19591 24486 24489 28
19592 24486 24490 28
19593 24491 24492 28
19594 24491 24493 28
19595 24491 24494 28
19596 24491 24495 28
19597 24496 24497 28
19598 24496 24498 28
19599 24496 24499 28
19600 24496 24500 28
19601 24501 24502 28
19602 24501 24503 28
19603 24501 24504 28
19604 24501 24505 28
19605 24506 24507 28
19606 24506 24508 28
19607 24506 24509 28
19608 24506 24510 28
19609 24511 24512 28
19610 24511 24513 28
19611 24511 24514 28
19612 24511 24515 28
19613 24516 24517 28
19614 24516 24518 28
19615 24516 24519 28
19616 24516 24520 28
19617 24521 24522 28
19618 24521 24523 28
19619 24521 24524 28
19620 24521 24525 28
19621 24526 24527 28
19622 24526 24528 28
19623 24526 24529 28
19624 24526 24530 28
19625 24531 24532 28
19626 24531 24533 28
19627 24531 24534 28
19628 24531 24535 28
19629 24536 24537 28
19630 24536 24538 28
19631 24536 24539 28
19632 24536 24540 28
19633 24541 24542 28
19634 24541 24543 28
19635 24541 24544 28
19636 24541 24545 28
19637 24546 24547 28
19638 24546 24548 28
19639 24546 24549 28
19640 24546 24550 28
19641 24551 24552 28
19642 24551 24553 28
19643 24551 24554 28
19644 24551 24555 28
19645 24556 24557 28
19646 24556 24558 28
19647 24556 24559 28
19648 24556 24560 28
19649 24561 24562 28
19650 24561 24563 28
19651 24561 24564 28
19652 24561 24565 28
19653 24566 24567 28
19654 24566 24568 28
19655 24566 24569 28
19656 24566 24570 28
19657 24571 24572 28
19658 24571 24573 28
19659 24571 24574 28
19660 24571 24575 28
19661 24576 24577 28
19662 24576 24578 28
19663 24576 24579 28
19664 24576 24580 28
19665 24581 24582 28
19666 24581 24583 28
19667 24581 24584 28
19668 24581 24585 28
19669 24586 24587 28
19670 24586 24588 28
19671 24586 24589 28
19672 24586 24590 28
19673 24591 24592 28
19674 24591 24593 28
19675 24591 24594 28
19676 24591 24595 28
19677 24596 24597 28
19678 24596 24598 28
19679 24596 24599 28
19680 24596 24600 28
19681 24601 24602 28
19682 24601 24603 28
19683 24601 24604 28
19684 24601 24605 28
19685 24606 24607 28
19686 24606 24608 28
19687 24606 24609 28
19688 24606 24610 28
19689 24611 24612 28
19690 24611 24613 28
19691 24611 24614 28
19692 24611 24615 28
19693 24616 24617 28
19694 24616 24618 28
19695 24616 24619 28
19696 24616 24620 28
19697 24621 24622 28
19698 24621 24623 28
19699 24621 24624 28
19700 24621 24625 28
19701 24626 24627 28
19702 24626 24628 28
19703 24626 24629 28
19704 24626 24630 28
19705 24631 24632 28
19706 24631 24633 28
19707 24631 24634 28
19708 24631 24635 28
19709 24636 24637 28
19710 24636 24638 28
19711 24636 24639 28
19712 24636 24640 28
19713 24641 24642 28
19714 24641 24643 28
19715 24641 24644 28
19716 24641 24645 28
19717 24646 24647 28
19718 24646 24648 28
19719 24646 24649 28
19720 24646 24650 28
19721 24651 24652 28
19722 24651 24653 28
19723 24651 24654 28
19724 24651 24655 28
19725 24656 24657 28
19726 24656 24658 28
19727 24656 24659 28
19728 24656 24660 28
19729 24661 24662 28
19730 24661 24663 28
19731 24661 24664 28
19732 24661 24665 28
19733 24666 24667 28
19734 24666 24668 28
19735 24666 24669 28
19736 24666 24670 28
19737 24671 24672 28
19738 24671 24673 28
19739 24671 24674 28
19740 24671 24675 28
19741 24676 24677 28
19742 24676 24678 28
19743 24676 24679 28
19744 24676 24680 28
19745 24681 24682 28
19746 24681 24683 28
19747 24681 24684 28
19748 24681 24685 28
19749 24686 24687 28
19750 24686 24688 28
19751 24686 24689 28
19752 24686 24690 28
19753 24691 24692 28
19754 24691 24693 28
19755 24691 24694 28
19756 24691 24695 28
19757 24696 24697 28
19758 24696 24698 28
19759 24696 24699 28
19760 24696 24700 28
19761 24701 24702 28
19762 24701 24703 28
19763 24701 24704 28
19764 24701 24705 28
19765 24706 24707 28
19766 24706 24708 28
19767 24706 24709 28
19768 24706 24710 28
19769 24711 24712 28
19770 24711 24713 28
19771 24711 24714 28
19772 24711 24715 28
19773 24716 24717 28
19774 24716 24718 28
19775 24716 24719 28
19776 24716 24720 28
19777 24721 24722 28
19778 24721 24723 28
19779 24721 24724 28
19780 24721 24725 28
19781 24726 24727 28
19782 24726 24728 28
19783 24726 24729 28
19784 24726 24730 28
19785 24731 24732 28
19786 24731 24733 28
19787 24731 24734 28
19788 24731 24735 28
19789 24736 24737 28
19790 24736 24738 28
19791 24736 24739 28
19792 24736 24740 28
19793 24741 24742 28
19794 24741 24743 28
19795 24741 24744 28
19796 24741 24745 28
19797 24746 24747 28
19798 24746 24748 28
19799 24746 24749 28
19800 24746 24750 28
19801 24751 24752 28
19802 24751 24753 28
19803 24751 24754 28
19804 24751 24755 28
19805 24756 24757 28
19806 24756 24758 28
19807 24756 24759 28
19808 24756 24760 28
19809 24761 24762 28
19810 24761 24763 28
19811 24761 24764 28
19812 24761 24765 28
19813 24766 24767 28
19814 24766 24768 28
19815 24766 24769 28
19816 24766 24770 28
19817 24771 24772 28
19818 24771 24773 28
19819 24771 24774 28
19820 24771 24775 28
19821 24776 24777 28
19822 24776 24778 28
19823 24776 24779 28
19824 24776 24780 28
19825 24781 24782 28
19826 24781 24783 28
19827 24781 24784 28
19828 24781 24785 28
19829 24786 24787 28
19830 24786 24788 28
19831 24786 24789 28
19832 24786 24790 28
19833 24791 24792 28
19834 24791 24793 28
19835 24791 24794 28
19836 24791 24795 28
19837 24796 24797 28
19838 24796 24798 28
19839 24796 24799 28
19840 24796 24800 28
19841 24801 24802 28
19842 24801 24803 28
19843 24801 24804 28
19844 24801 24805 28
19845 24806 24807 28
19846 24806 24808 28
19847 24806 24809 28
19848 24806 24810 28
19849 24811 24812 28
19850 24811 24813 28
19851 24811 24814 28
19852 24811 24815 28
19853 24816 24817 28
19854 24816 24818 28
19855 24816 24819 28
19856 24816 24820 28
19857 24821 24822 28
19858 24821 24823 28
19859 24821 24824 28
19860 24821 24825 28
19861 24826 24827 28
19862 24826 24828 28
19863 24826 24829 28
19864 24826 24830 28
19865 24831 24832 28
19866 24831 24833 28
19867 24831 24834 28
19868 24831 24835 28
19869 24836 24837 28
19870 24836 24838 28
19871 24836 24839 28
19872 24836 24840 28
19873 24841 24842 28
19874 24841 24843 28
19875 24841 24844 28
19876 24841 24845 28
19877 24846 24847 28
19878 24846 24848 28
19879 24846 24849 28
19880 24846 24850 28
19881 24851 24852 28
19882 24851 24853 28
19883 24851 24854 28
19884 24851 24855 28
19885 24856 24857 28
19886 24856 24858 28
19887 24856 24859 28
19888 24856 24860 28
19889 24861 24862 28
19890 24861 24863 28
19891 24861 24864 28
19892 24861 24865 28
19893 24866 24867 28
19894 24866 24868 28
19895 24866 24869 28
19896 24866 24870 28
19897 24871 24872 28
19898 24871 24873 28
19899 24871 24874 28
19900 24871 24875 28
19901 24876 24877 28
19902 24876 24878 28
19903 24876 24879 28
19904 24876 24880 28
19905 24881 24882 28
19906 24881 24883 28
19907 24881 24884 28
19908 24881 24885 28
19909 24886 24887 28
19910 24886 24888 28
19911 24886 24889 28
19912 24886 24890 28
19913 24891 24892 28
19914 24891 24893 28
19915 24891 24894 28
19916 24891 24895 28
19917 24896 24897 28
19918 24896 24898 28
19919 24896 24899 28
19920 24896 24900 28
19921 24901 24902 28
19922 24901 24903 28
19923 24901 24904 28
19924 24901 24905 28
19925 24906 24907 28
19926 24906 24908 28
19927 24906 24909 28
19928 24906 24910 28
19929 24911 24912 28
19930 24911 24913 28
19931 24911 24914 28
19932 24911 24915 28
19933 24916 24917 28
19934 24916 24918 28
19935 24916 24919 28
19936 24916 24920 28
19937 24921 24922 28
19938 24921 24923 28
19939 24921 24924 28
19940 24921 24925 28
19941 24926 24927 28
19942 24926 24928 28
19943 24926 24929 28
19944 24926 24930 28
19945 24931 24932 28
19946 24931 24933 28
19947 24931 24934 28
19948 24931 24935 28
19949 24936 24937 28
19950 24936 24938 28
19951 24936 24939 28
19952 24936 24940 28
19953 24941 24942 28
19954 24941 24943 28
19955 24941 24944 28
19956 24941 24945 28
19957 24946 24947 28
19958 24946 24948 28
19959 24946 24949 28
19960 24946 24950 28
19961 24951 24952 28
19962 24951 24953 28
19963 24951 24954 28
19964 24951 24955 28
19965 24956 24957 28
19966 24956 24958 28
19967 24956 24959 28
19968 24956 24960 28
19969 24961 24962 28
19970 24961 24963 28
19971 24961 24964 28
19972 24961 24965 28
19973 24966 24967 28
19974 24966 24968 28
19975 24966 24969 28
19976 24966 24970 28
19977 24971 24972 28
19978 24971 24973 28
19979 24971 24974 28
19980 24971 24975 28
19981 24976 24977 28
19982 24976 24978 28
19983 24976 24979 28
19984 24976 24980 28
19985 24981 24982 28
19986 24981 24983 28
19987 24981 24984 28
19988 24981 24985 28
19989 24986 24987 28
19990 24986 24988 28
19991 24986 24989 28
19992 24986 24990 28
19993 24991 24992 28
19994 24991 24993 28
19995 24991 24994 28
19996 24991 24995 28
19997 24996 24997 28
19998 24996 24998 28
19999 24996 24999 28
20000 24996 25000 28
20001 25001 25002 28
20002 25001 25003 28
20003 25001 25004 28
20004 25001 25005 28
20005 25006 25007 28
20006 25006 25008 28
20007 25006 25009 28
20008 25006 25010 28
20009 25011 25012 28
20010 25011 25013 28
20011 25011 25014 28
20012 25011 25015 28
20013 25016 25017 28
20014 25016 25018 28
20015 25016 25019 28
20016 25016 25020 28
20017 25021 25022 28
20018 25021 25023 28
20019 25021 25024 28
20020 25021 25025 28
20021 25026 25027 28
20022 25026 25028 28
20023 25026 25029 28
20024 25026 25030 28
20025 25031 25032 28
20026 25031 25033 28
20027 25031 25034 28
20028 25031 25035 28
20029 25036 25037 28
20030 25036 25038 28
20031 25036 25039 28
20032 25036 25040 28
20033 25041 25042 28
20034 25041 25043 28
20035 25041 25044 28
20036 25041 25045 28
20037 25046 25047 28
20038 25046 25048 28
20039 25046 25049 28
20040 25046 25050 28
20041 25051 25052 28
20042 25051 25053 28
20043 25051 25054 28
20044 25051 25055 28
20045 25056 25057 28
20046 25056 25058 28
20047 25056 25059 28
20048 25056 25060 28
20049 25061 25062 28
20050 25061 25063 28
20051 25061 25064 28
20052 25061 25065 28
20053 25066 25067 28
20054 25066 25068 28
20055 25066 25069 28
20056 25066 25070 28
20057 25071 25072 28
20058 25071 25073 28
20059 25071 25074 28
20060 25071 25075 28
20061 25076 25077 28
20062 25076 25078 28
20063 25076 25079 28
20064 25076 25080 28
20065 25081 25082 28
20066 25081 25083 28
20067 25081 25084 28
20068 25081 25085 28
20069 25086 25087 28
20070 25086 25088 28
20071 25086 25089 28
20072 25086 25090 28
20073 25091 25092 28
20074 25091 25093 28
20075 25091 25094 28
20076 25091 25095 28
20077 25096 25097 28
20078 25096 25098 28
20079 25096 25099 28
20080 25096 25100 28
20081 25101 25102 28
20082 25101 25103 28
20083 25101 25104 28
20084 25101 25105 28
20085 25106 25107 28
20086 25106 25108 28
20087 25106 25109 28
20088 25106 25110 28
20089 25111 25112 28
20090 25111 25113 28
20091 25111 25114 28
20092 25111 25115 28
20093 25116 25117 28
20094 25116 25118 28
20095 25116 25119 28
20096 25116 25120 28
20097 25121 25122 28
20098 25121 25123 28
20099 25121 25124 28
20100 25121 25125 28
20101 25126 25127 28
20102 25126 25128 28
20103 25126 25129 28
20104 25126 25130 28
20105 25131 25132 28
20106 25131 25133 28
20107 25131 25134 28
20108 25131 25135 28
20109 25136 25137 28
20110 25136 25138 28
20111 25136 25139 28
20112 25136 25140 28
20113 25141 25142 28
20114 25141 25143 28
20115 25141 25144 28
20116 25141 25145 28
20117 25146 25147 28
20118 25146 25148 28
20119 25146 25149 28
20120 25146 25150 28
20121 25151 25152 28
20122 25151 25153 28
20123 25151 25154 28
20124 25151 25155 28
20125 25156 25157 28
20126 25156 25158 28
20127 25156 25159 28
20128 25156 25160 28
20129 25161 25162 28
20130 25161 25163 28
20131 25161 25164 28
20132 25161 25165 28
20133 25166 25167 28
20134 25166 25168 28
20135 25166 25169 28
20136 25166 25170 28
20137 25171 25172 28
20138 25171 25173 28
20139 25171 25174 28
20140 25171 25175 28
20141 25176 25177 28
20142 25176 25178 28
20143 25176 25179 28
20144 25176 25180 28
20145 25181 25182 28
20146 25181 25183 28
20147 25181 25184 28
20148 25181 25185 28
20149 25186 25187 28
20150 25186 25188 28
20151 25186 25189 28
20152 25186 25190 28
20153 25191 25192 28
20154 25191 25193 28
20155 25191 25194 28
20156 25191 25195 28
20157 25196 25197 28
20158 25196 25198 28
20159 25196 25199 28
20160 25196 25200 28
20161 25201 25202 28
20162 25201 25203 28
20163 25201 25204 28
20164 25201 25205 28
20165 25206 25207 28
20166 25206 25208 28
20167 25206 25209 28
20168 25206 25210 28
20169 25211 25212 28
20170 25211 25213 28
20171 25211 25214 28
20172 25211 25215 28
20173 25216 25217 28
20174 25216 25218 28
20175 25216 25219 28
20176 25216 25220 28
20177 25221 25222 28
20178 25221 25223 28
20179 25221 25224 28
20180 25221 25225 28
20181 25226 25227 28
20182 25226 25228 28
20183 25226 25229 28
20184 25226 25230 28
20185 25231 25232 28
20186 25231 25233 28
20187 25231 25234 28
20188 25231 25235 28
20189 25236 25237 28
20190 25236 25238 28
20191 25236 25239 28
20192 25236 25240 28
20193 25241 25242 28
20194 25241 25243 28
20195 25241 25244 28
20196 25241 25245 28
20197 25246 25247 28
20198 25246 25248 28
20199 25246 25249 28
20200 25246 25250 28
20201 25251 25252 28
20202 25251 25253 28
20203 25251 25254 28
20204 25251 25255 28
20205 25256 25257 28
20206 25256 25258 28
20207 25256 25259 28
20208 25256 25260 28
20209 25261 25262 28
20210 25261 25263 28
20211 25261 25264 28
20212 25261 25265 28
20213 25266 25267 28
20214 25266 25268 28
20215 25266 25269 28
20216 25266 25270 28
20217 25271 25272 28
20218 25271 25273 28
20219 25271 25274 28
20220 25271 25275 28
20221 25276 25277 28
20222 25276 25278 28
20223 25276 25279 28
20224 25276 25280 28
20225 25281 25282 28
20226 25281 25283 28
20227 25281 25284 28
20228 25281 25285 28
20229 25286 25287 28
20230 25286 25288 28
20231 25286 25289 28
20232 25286 25290 28
20233 25291 25292 28
20234 25291 25293 28
20235 25291 25294 28
20236 25291 25295 28
20237 25296 25297 28
20238 25296 25298 28
20239 25296 25299 28
20240 25296 25300 28
20241 25301 25302 28
20242 25301 25303 28
20243 25301 25304 28
20244 25301 25305 28
20245 25306 25307 28
20246 25306 25308 28
20247 25306 25309 28
20248 25306 25310 28
20249 25311 25312 28
20250 25311 25313 28
20251 25311 25314 28
20252 25311 25315 28
20253 25316 25317 28
20254 25316 25318 28
20255 25316 25319 28
20256 25316 25320 28
20257 25321 25322 28
20258 25321 25323 28
20259 25321 25324 28
20260 25321 25325 28
20261 25326 25327 28
20262 25326 25328 28
20263 25326 25329 28
20264 25326 25330 28
20265 25331 25332 28
20266 25331 25333 28
20267 25331 25334 28
20268 25331 25335 28
20269 25336 25337 28
20270 25336 25338 28
20271 25336 25339 28
20272 25336 25340 28
20273 25341 25342 28
20274 25341 25343 28
20275 25341 25344 28
20276 25341 25345 28
20277 25346 25347 28
20278 25346 25348 28
20279 25346 25349 28
20280 25346 25350 28
20281 25351 25352 28
20282 25351 25353 28
20283 25351 25354 28
20284 25351 25355 28
20285 25356 25357 28
20286 25356 25358 28
20287 25356 25359 28
20288 25356 25360 28
20289 25361 25362 28
20290 25361 25363 28
20291 25361 25364 28
20292 25361 25365 28
20293 25366 25367 28
20294 25366 25368 28
20295 25366 25369 28
20296 25366 25370 28
20297 25371 25372 28
20298 25371 25373 28
20299 25371 25374 28
20300 25371 25375 28
20301 25376 25377 28
20302 25376 25378 28
20303 25376 25379 28
20304 25376 25380 28
20305 25381 25382 28
20306 25381 25383 28
20307 25381 25384 28
20308 25381 25385 28
20309 25386 25387 28
20310 25386 25388 28
20311 25386 25389 28
20312 25386 25390 28
20313 25391 25392 28
20314 25391 25393 28
20315 25391 25394 28
20316 25391 25395 28
20317 25396 25397 28
20318 25396 25398 28
20319 25396 25399 28
20320 25396 25400 28
20321 25401 25402 28
20322 25401 25403 28
20323 25401 25404 28
20324 25401 25405 28
20325 25406 25407 28
20326 25406 25408 28
20327 25406 25409 28
20328 25406 25410 28
20329 25411 25412 28
20330 25411 25413 28
20331 25411 25414 28
20332 25411 25415 28
20333 25416 25417 28
20334 25416 25418 28
20335 25416 25419 28
20336 25416 25420 28
20337 25421 25422 28
20338 25421 25423 28
20339 25421 25424 28
20340 25421 25425 28
20341 25426 25427 28
20342 25426 25428 28
20343 25426 25429 28
20344 25426 25430 28
20345 25431 25432 28
20346 25431 25433 28
20347 25431 25434 28
20348 25431 25435 28
20349 25436 25437 28
20350 25436 25438 28
20351 25436 25439 28
20352 25436 25440 28
20353 25441 25442 28
20354 25441 25443 28
20355 25441 25444 28
20356 25441 25445 28
20357 25446 25447 28
20358 25446 25448 28
20359 25446 25449 28
20360 25446 25450 28
20361 25451 25452 28
20362 25451 25453 28
20363 25451 25454 28
20364 25451 25455 28
20365 25456 25457 28
20366 25456 25458 28
20367 25456 25459 28
20368 25456 25460 28
20369 25461 25462 28
20370 25461 25463 28
20371 25461 25464 28
20372 25461 25465 28
20373 25466 25467 28
20374 25466 25468 28
20375 25466 25469 28
20376 25466 25470 28
20377 25471 25472 28
20378 25471 25473 28
20379 25471 25474 28
20380 25471 25475 28
20381 25476 25477 28
20382 25476 25478 28
20383 25476 25479 28
20384 25476 25480 28
20385 25481 25482 28
20386 25481 25483 28
20387 25481 25484 28
20388 25481 25485 28
20389 25486 25487 28
20390 25486 25488 28
20391 25486 25489 28
20392 25486 25490 28
20393 25491 25492 28
20394 25491 25493 28
20395 25491 25494 28
20396 25491 25495 28
20397 25496 25497 28
20398 25496 25498 28
20399 25496 25499 28
20400 25496 25500 28
20401 25501 25502 28
20402 25501 25503 28
20403 25501 25504 28
20404 25501 25505 28
20405 25506 25507 28
20406 25506 25508 28
20407 25506 25509 28
20408 25506 25510 28
20409 25511 25512 28
20410 25511 25513 28
20411 25511 25514 28
20412 25511 25515 28
20413 25516 25517 28
20414 25516 25518 28
20415 25516 25519 28
20416 25516 25520 28
20417 25521 25522 28
20418 25521 25523 28
20419 25521 25524 28
20420 25521 25525 28
20421 25526 25527 28
20422 25526 25528 28
20423 25526 25529 28
20424 25526 25530 28
20425 25531 25532 28
20426 25531 25533 28
20427 25531 25534 28
20428 25531 25535 28
20429 25536 25537 28
20430 25536 25538 28
20431 25536 25539 28
20432 25536 25540 28
20433 25541 25542 28
20434 25541 25543 28
20435 25541 25544 28
20436 25541 25545 28
20437 25546 25547 28
20438 25546 25548 28
20439 25546 25549 28
20440 25546 25550 28
20441 25551 25552 28
20442 25551 25553 28
20443 25551 25554 28
20444 25551 25555 28
20445 25556 25557 28
20446 25556 25558 28
20447 25556 25559 28
20448 25556 25560 28
20449 25561 25562 28
20450 25561 25563 28
20451 25561 25564 28
20452 25561 25565 28
20453 25566 25567 28
20454 25566 25568 28
20455 25566 25569 28
20456 25566 25570 28
20457 25571 25572 28
20458 25571 25573 28
20459 25571 25574 28
20460 25571 25575 28
20461 25576 25577 28
20462 25576 25578 28
20463 25576 25579 28
20464 25576 25580 28
20465 25581 25582 28
20466 25581 25583 28
20467 25581 25584 28
20468 25581 25585 28
20469 25586 25587 28
20470 25586 25588 28
20471 25586 25589 28
20472 25586 25590 28
20473 25591 25592 28
20474 25591 25593 28
20475 25591 25594 28
20476 25591 25595 28
20477 25596 25597 28
20478 25596 25598 28
20479 25596 25599 28
20480 25596 25600 28
20481 25601 25602 28
20482 25601 25603 28
20483 25601 25604 28
20484 25601 25605 28
20485 25606 25607 28
20486 25606 25608 28
20487 25606 25609 28
20488 25606 25610 28
20489 25611 25612 28
20490 25611 25613 28
20491 25611 25614 28
20492 25611 25615 28
20493 25616 25617 28
20494 25616 25618 28
20495 25616 25619 28
20496 25616 25620 28
20497 25621 25622 28
20498 25621 25623 28
20499 25621 25624 28
20500 25621 25625 28
20501 25626 25627 28
20502 25626 25628 28
20503 25626 25629 28
20504 25626 25630 28
20505 25631 25632 28
20506 25631 25633 28
20507 25631 25634 28
20508 25631 25635 28
20509 25636 25637 28
20510 25636 25638 28
20511 25636 25639 28
20512 25636 25640 28
20513 25641 25642 28
20514 25641 25643 28
20515 25641 25644 28
20516 25641 25645 28
20517 25646 25647 28
20518 25646 25648 28
20519 25646 25649 28
20520 25646 25650 28
20521 25651 25652 28
20522 25651 25653 28
20523 25651 25654 28
20524 25651 25655 28
20525 25656 25657 28
20526 25656 25658 28
20527 25656 25659 28
20528 25656 25660 28
20529 25661 25662 28
20530 25661 25663 28
20531 25661 25664 28
20532 25661 25665 28
20533 25666 25667 28
20534 25666 25668 28
20535 25666 25669 28
20536 25666 25670 28
20537 25671 25672 28
20538 25671 25673 28
20539 25671 25674 28
20540 25671 25675 28
20541 25676 25677 28
20542 25676 25678 28
20543 25676 25679 28
20544 25676 25680 28
20545 25681 25682 28
20546 25681 25683 28
20547 25681 25684 28
20548 25681 25685 28
20549 25686 25687 28
20550 25686 25688 28
20551 25686 25689 28
20552 25686 25690 28
20553 25691 25692 28
20554 25691 25693 28
20555 25691 25694 28
20556 25691 25695 28
20557 25696 25697 28
20558 25696 25698 28
20559 25696 25699 28
20560 25696 25700 28
20561 25701 25702 28
20562 25701 25703 28
20563 25701 25704 28
20564 25701 25705 28
20565 25706 25707 28
20566 25706 25708 28
20567 25706 25709 28
20568 25706 25710 28
20569 25711 25712 28
20570 25711 25713 28
20571 25711 25714 28
20572 25711 25715 28
20573 25716 25717 28
20574 25716 25718 28
20575 25716 25719 28
20576 25716 25720 28
20577 25721 25722 28
20578 25721 25723 28
20579 25721 25724 28
20580 25721 25725 28
20581 25726 25727 28
20582 25726 25728 28
20583 25726 25729 28
20584 25726 25730 28
20585 25731 25732 28
20586 25731 25733 28
20587 25731 25734 28
20588 25731 25735 28
20589 25736 25737 28
20590 25736 25738 28
20591 25736 25739 28
20592 25736 25740 28
20593 25741 25742 28
20594 25741 25743 28
20595 25741 25744 28
20596 25741 25745 28
20597 25746 25747 28
20598 25746 25748 28
20599 25746 25749 28
20600 25746 25750 28
20601 25751 25752 28
20602 25751 25753 28
20603 25751 25754 28
20604 25751 25755 28
20605 25756 25757 28
20606 25756 25758 28
20607 25756 25759 28
20608 25756 25760 28
20609 25761 25762 28
20610 25761 25763 28
20611 25761 25764 28
20612 25761 25765 28
20613 25766 25767 28
20614 25766 25768 28
20615 25766 25769 28
20616 25766 25770 28
20617 25771 25772 28
20618 25771 25773 28
20619 25771 25774 28
20620 25771 25775 28
20621 25776 25777 28
20622 25776 25778 28
20623 25776 25779 28
20624 25776 25780 28
20625 25781 25782 28
20626 25781 25783 28
20627 25781 25784 28
20628 25781 25785 28
20629 25786 25787 28
20630 25786 25788 28
20631 25786 25789 28
20632 25786 25790 28
20633 25791 25792 28
20634 25791 25793 28
20635 25791 25794 28
20636 25791 25795 28
20637 25796 25797 28
20638 25796 25798 28
20639 25796 25799 28
20640 25796 25800 28
20641 25801 25802 28
20642 25801 25803 28
20643 25801 25804 28
20644 25801 25805 28
20645 25806 25807 28
20646 25806 25808 28
20647 25806 25809 28
20648 25806 25810 28
20649 25811 25812 28
20650 25811 25813 28
20651 25811 25814 28
20652 25811 25815 28
20653 25816 25817 28
20654 25816 25818 28
20655 25816 25819 28
20656 25816 25820 28
20657 25821 25822 28
20658 25821 25823 28
20659 25821 25824 28
20660 25821 25825 28
20661 25826 25827 28
20662 25826 25828 28
20663 25826 25829 28
20664 25826 25830 28
20665 25831 25832 28
20666 25831 25833 28
20667 25831 25834 28
20668 25831 25835 28
20669 25836 25837 28
20670 25836 25838 28
20671 25836 25839 28
20672 25836 25840 28
20673 25841 25842 28
20674 25841 25843 28
20675 25841 25844 28
20676 25841 25845 28
20677 25846 25847 28
20678 25846 25848 28
20679 25846 25849 28
20680 25846 25850 28
20681 25851 25852 28
20682 25851 25853 28
20683 25851 25854 28
20684 25851 25855 28
20685 25856 25857 28
20686 25856 25858 28
20687 25856 25859 28
20688 25856 25860 28
20689 25861 25862 28
20690 25861 25863 28
20691 25861 25864 28
20692 25861 25865 28
20693 25866 25867 28
20694 25866 25868 28
20695 25866 25869 28
20696 25866 25870 28
20697 25871 25872 28
20698 25871 25873 28
20699 25871 25874 28
20700 25871 25875 28
20701 25876 25877 28
20702 25876 25878 28
20703 25876 25879 28
20704 25876 25880 28
20705 25881 25882 28
20706 25881 25883 28
20707 25881 25884 28
20708 25881 25885 28
20709 25886 25887 28
20710 25886 25888 28
20711 25886 25889 28
20712 25886 25890 28
20713 25891 25892 28
20714 25891 25893 28
20715 25891 25894 28
20716 25891 25895 28
20717 25896 25897 28
20718 25896 25898 28
20719 25896 25899 28
20720 25896 25900 28
20721 25901 25902 28
20722 25901 25903 28
20723 25901 25904 28
20724 25901 25905 28
20725 25906 25907 28
20726 25906 25908 28
20727 25906 25909 28
20728 25906 25910 28
20729 25911 25912 28
20730 25911 25913 28
20731 25911 25914 28
20732 25911 25915 28
20733 25916 25917 28
20734 25916 25918 28
20735 25916 25919 28
20736 25916 25920 28
20737 25921 25922 28
20738 25921 25923 28
20739 25921 25924 28
20740 25921 25925 28
20741 25926 25927 28
20742 25926 25928 28
20743 25926 25929 28
20744 25926 25930 28
20745 25931 25932 28
20746 25931 25933 28
20747 25931 25934 28
20748 25931 25935 28
20749 25936 25937 28
20750 25936 25938 28
20751 25936 25939 28
20752 25936 25940 28
20753 25941 25942 28
20754 25941 25943 28
20755 25941 25944 28
20756 25941 25945 28
20757 25946 25947 28
20758 25946 25948 28
20759 25946 25949 28
20760 25946 25950 28
20761 25951 25952 28
20762 25951 25953 28
20763 25951 25954 28
20764 25951 25955 28
20765 25956 25957 28
20766 25956 25958 28
20767 25956 25959 28
20768 25956 25960 28
20769 25961 25962 28
20770 25961 25963 28
20771 25961 25964 28
20772 25961 25965 28
20773 25966 25967 28
20774 25966 25968 28
20775 25966 25969 28
20776 25966 25970 28
20777 25971 25972 28
20778 25971 25973 28
20779 25971 25974 28
20780 25971 25975 28
20781 25976 25977 28
20782 25976 25978 28
20783 25976 25979 28
20784 25976 25980 28
20785 25981 25982 28
20786 25981 25983 28
20787 25981 25984 28
20788 25981 25985 28
20789 25986 25987 28
20790 25986 25988 28
20791 25986 25989 28
20792 25986 25990 28
20793 25991 25992 28
20794 25991 25993 28
20795 25991 25994 28
20796 25991 25995 28
20797 25996 25997 28
20798 25996 25998 28
20799 25996 25999 28
20800 25996 26000 28
20801 26001 26002 28
20802 26001 26003 28
20803 26001 26004 28
20804 26001 26005 28
20805 26006 26007 28
20806 26006 26008 28
20807 26006 26009 28
20808 26006 26010 28
20809 26011 26012 28
20810 26011 26013 28
20811 26011 26014 28
20812 26011 26015 28
20813 26016 26017 28
20814 26016 26018 28
20815 26016 26019 28
20816 26016 26020 28
20817 26021 26022 28
20818 26021 26023 28
20819 26021 26024 28
20820 26021 26025 28
20821 26026 26027 28
20822 26026 26028 28
20823 26026 26029 28
20824 26026 26030 28
20825 26031 26032 28
20826 26031 26033 28
20827 26031 26034 28
20828 26031 26035 28
20829 26036 26037 28
20830 26036 26038 28
20831 26036 26039 28
20832 26036 26040 28
20833 26041 26042 28
20834 26041 26043 28
20835 26041 26044 28
20836 26041 26045 28
20837 26046 26047 28
20838 26046 26048 28
20839 26046 26049 28
20840 26046 26050 28
20841 26051 26052 28
20842 26051 26053 28
20843 26051 26054 28
20844 26051 26055 28
20845 26056 26057 28
20846 26056 26058 28
20847 26056 26059 28
20848 26056 26060 28
20849 26061 26062 28
20850 26061 26063 28
20851 26061 26064 28
20852 26061 26065 28
20853 26066 26067 28
20854 26066 26068 28
20855 26066 26069 28
20856 26066 26070 28
20857 26071 26072 28
20858 26071 26073 28
20859 26071 26074 28
20860 26071 26075 28
20861 26076 26077 28
20862 26076 26078 28
20863 26076 26079 28
20864 26076 26080 28
20865 26081 26082 28
20866 26081 26083 28
20867 26081 26084 28
20868 26081 26085 28
20869 26086 26087 28
20870 26086 26088 28
20871 26086 26089 28
20872 26086 26090 28
20873 26091 26092 28
20874 26091 26093 28
20875 26091 26094 28
20876 26091 26095 28
20877 26096 26097 28
20878 26096 26098 28
20879 26096 26099 28
20880 26096 26100 28
20881 26101 26102 28
20882 26101 26103 28
20883 26101 26104 28
20884 26101 26105 28
20885 26106 26107 28
20886 26106 26108 28
20887 26106 26109 28
20888 26106 26110 28
20889 26111 26112 28
20890 26111 26113 28
20891 26111 26114 28
20892 26111 26115 28
20893 26116 26117 28
20894 26116 26118 28
20895 26116 26119 28
20896 26116 26120 28
20897 26121 26122 28
20898 26121 26123 28
20899 26121 26124 28
20900 26121 26125 28
20901 26126 26127 28
20902 26126 26128 28
20903 26126 26129 28
20904 26126 26130 28
20905 26131 26132 28
20906 26131 26133 28
20907 26131 26134 28
20908 26131 26135 28
20909 26136 26137 28
20910 26136 26138 28
20911 26136 26139 28
20912 26136 26140 28
20913 26141 26142 28
20914 26141 26143 28
20915 26141 26144 28
20916 26141 26145 28
20917 26146 26147 28
20918 26146 26148 28
20919 26146 26149 28
20920 26146 26150 28
20921 26151 26152 28
20922 26151 26153 28
20923 26151 26154 28
20924 26151 26155 28
20925 26156 26157 28
20926 26156 26158 28
20927 26156 26159 28
20928 26156 26160 28
20929 26161 26162 28
20930 26161 26163 28
20931 26161 26164 28
20932 26161 26165 28
20933 26166 26167 28
20934 26166 26168 28
20935 26166 26169 28
20936 26166 26170 28
20937 26171 26172 28
20938 26171 26173 28
20939 26171 26174 28
20940 26171 26175 28
20941 26176 26177 28
20942 26176 26178 28
20943 26176 26179 28
20944 26176 26180 28
20945 26181 26182 28
20946 26181 26183 28
20947 26181 26184 28
20948 26181 26185 28
20949 26186 26187 28
20950 26186 26188 28
20951 26186 26189 28
20952 26186 26190 28
20953 26191 26192 28
20954 26191 26193 28
20955 26191 26194 28
20956 26191 26195 28
20957 26196 26197 28
20958 26196 26198 28
20959 26196 26199 28
20960 26196 26200 28
20961 26201 26202 28
20962 26201 26203 28
20963 26201 26204 28
20964 26201 26205 28
20965 26206 26207 28
20966 26206 26208 28
20967 26206 26209 28
20968 26206 26210 28
20969 26211 26212 28
20970 26211 26213 28
20971 26211 26214 28
20972 26211 26215 28
20973 26216 26217 28
20974 26216 26218 28
20975 26216 26219 28
20976 26216 26220 28
20977 26221 26222 28
20978 26221 26223 28
20979 26221 26224 28
20980 26221 26225 28
20981 26226 26227 28
20982 26226 26228 28
20983 26226 26229 28
20984 26226 26230 28
20985 26231 26232 28
20986 26231 26233 28
20987 26231 26234 28
20988 26231 26235 28
20989 26236 26237 28
20990 26236 26238 28
20991 26236 26239 28
20992 26236 26240 28
20993 26241 26242 28
20994 26241 26243 28
20995 26241 26244 28
20996 26241 26245 28
20997 26246 26247 28
20998 26246 26248 28
20999 26246 26249 28
21000 26246 26250 28
21001 26251 26252 28
21002 26251 26253 28
21003 26251 26254 28
21004 26251 26255 28
21005 26256 26257 28
21006 26256 26258 28
21007 26256 26259 28
21008 26256 26260 28
21009 26261 26262 28
21010 26261 26263 28
21011 26261 26264 28
21012 26261 26265 28
21013 26266 26267 28
21014 26266 26268 28
21015 26266 26269 28
21016 26266 26270 28
21017 26271 26272 28
21018 26271 26273 28
21019 26271 26274 28
21020 26271 26275 28
21021 26276 26277 28
21022 26276 26278 28
21023 26276 26279 28
21024 26276 26280 28
21025 26281 26282 28
21026 26281 26283 28
21027 26281 26284 28
21028 26281 26285 28
21029 26286 26287 28
21030 26286 26288 28
21031 26286 26289 28
21032 26286 26290 28
21033 26291 26292 28
21034 26291 26293 28
21035 26291 26294 28
21036 26291 26295 28
21037 26296 26297 28
21038 26296 26298 28
21039 26296 26299 28
21040 26296 26300 28
21041 26301 26302 28
21042 26301 26303 28
21043 26301 26304 28
21044 26301 26305 28
21045 26306 26307 28
21046 26306 26308 28
21047 26306 26309 28
21048 26306 26310 28
21049 26311 26312 28
21050 26311 26313 28
21051 26311 26314 28
21052 26311 26315 28
21053 26316 26317 28
21054 26316 26318 28
21055 26316 26319 28
21056 26316 26320 28
21057 26321 26322 28
21058 26321 26323 28
21059 26321 26324 28
21060 26321 26325 28
21061 26326 26327 28
21062 26326 26328 28
21063 26326 26329 28
21064 26326 26330 28
21065 26331 26332 28
21066 26331 26333 28
21067 26331 26334 28
21068 26331 26335 28
21069 26336 26337 28
21070 26336 26338 28
21071 26336 26339 28
21072 26336 26340 28
21073 26341 26342 28
21074 26341 26343 28
21075 26341 26344 28
21076 26341 26345 28
21077 26346 26347 28
21078 26346 26348 28
21079 26346 26349 28
21080 26346 26350 28
21081 26351 26352 28
21082 26351 26353 28
21083 26351 26354 28
21084 26351 26355 28
21085 26356 26357 28
21086 26356 26358 28
21087 26356 26359 28
21088 26356 26360 28
21089 26361 26362 28
21090 26361 26363 28
21091 26361 26364 28
21092 26361 26365 28
21093 26366 26367 28
21094 26366 26368 28
21095 26366 26369 28
21096 26366 26370 28
21097 26371 26372 28
21098 26371 26373 28
21099 26371 26374 28
21100 26371 26375 28
21101 26376 26377 28
21102 26376 26378 28
21103 26376 26379 28
21104 26376 26380 28
21105 26381 26382 28
21106 26381 26383 28
21107 26381 26384 28
21108 26381 26385 28
21109 26386 26387 28
21110 26386 26388 28
21111 26386 26389 28
21112 26386 26390 28
21113 26391 26392 28
21114 26391 26393 28
21115 26391 26394 28
21116 26391 26395 28
21117 26396 26397 28
21118 26396 26398 28
21119 26396 26399 28
21120 26396 26400 28
21121 26401 26402 28
21122 26401 26403 28
21123 26401 26404 28
21124 26401 26405 28
21125 26406 26407 28
21126 26406 26408 28
21127 26406 26409 28
21128 26406 26410 28
21129 26411 26412 28
21130 26411 26413 28
21131 26411 26414 28
21132 26411 26415 28
21133 26416 26417 28
21134 26416 26418 28
21135 26416 26419 28
21136 26416 26420 28
21137 26421 26422 28
21138 26421 26423 28
21139 26421 26424 28
21140 26421 26425 28
21141 26426 26427 28
21142 26426 26428 28
21143 26426 26429 28
21144 26426 26430 28
21145 26431 26432 28
21146 26431 26433 28
21147 26431 26434 28
21148 26431 26435 28
21149 26436 26437 28
21150 26436 26438 28
21151 26436 26439 28
21152 26436 26440 28
21153 26441 26442 28
21154 26441 26443 28
21155 26441 26444 28
21156 26441 26445 28
21157 26446 26447 28
21158 26446 26448 28
21159 26446 26449 28
21160 26446 26450 28
21161 26451 26452 28
21162 26451 26453 28
21163 26451 26454 28
21164 26451 26455 28
21165 26456 26457 28
21166 26456 26458 28
21167 26456 26459 28
21168 26456 26460 28
21169 26461 26462 28
21170 26461 26463 28
21171 26461 26464 28
21172 26461 26465 28
21173 26466 26467 28
21174 26466 26468 28
21175 26466 26469 28
21176 26466 26470 28
21177 26471 26472 28
21178 26471 26473 28
21179 26471 26474 28
21180 26471 26475 28
21181 26476 26477 28
21182 26476 26478 28
21183 26476 26479 28
21184 26476 26480 28
21185 26481 26482 28
21186 26481 26483 28
21187 26481 26484 28
21188 26481 26485 28
21189 26486 26487 28
21190 26486 26488 28
21191 26486 26489 28
21192 26486 26490 28
21193 26491 26492 28
21194 26491 26493 28
21195 26491 26494 28
21196 26491 26495 28
21197 26496 26497 28
21198 26496 26498 28
21199 26496 26499 28
21200 26496 26500 28
21201 26501 26502 28
21202 26501 26503 28
21203 26501 26504 28
21204 26501 26505 28
21205 26506 26507 28
21206 26506 26508 28
21207 26506 26509 28
21208 26506 26510 28
21209 26511 26512 28
21210 26511 26513 28
21211 26511 26514 28
21212 26511 26515 28
21213 26516 26517 28
21214 26516 26518 28
21215 26516 26519 28
21216 26516 26520 28
21217 26521 26522 28
21218 26521 26523 28
21219 26521 26524 28
21220 26521 26525 28
21221 26526 26527 28
21222 26526 26528 28
21223 26526 26529 28
21224 26526 26530 28
21225 26531 26532 28
21226 26531 26533 28
21227 26531 26534 28
21228 26531 26535 28
21229 26536 26537 28
21230 26536 26538 28
21231 26536 26539 28
21232 26536 26540 28
21233 26541 26542 28
21234 26541 26543 28
21235 26541 26544 28
21236 26541 26545 28
21237 26546 26547 28
21238 26546 26548 28
21239 26546 26549 28
21240 26546 26550 28
21241 26551 26552 28
21242 26551 26553 28
21243 26551 26554 28
21244 26551 26555 28
21245 26556 26557 28
21246 26556 26558 28
21247 26556 26559 28
21248 26556 26560 28
21249 26561 26562 28
21250 26561 26563 28
21251 26561 26564 28
21252 26561 26565 28
21253 26566 26567 28
21254 26566 26568 28
21255 26566 26569 28
21256 26566 26570 28
21257 26571 26572 28
21258 26571 26573 28
21259 26571 26574 28
21260 26571 26575 28
21261 26576 26577 28
21262 26576 26578 28
21263 26576 26579 28
21264 26576 26580 28
21265 26581 26582 28
21266 26581 26583 28
21267 26581 26584 28
21268 26581 26585 28
21269 26586 26587 28
21270 26586 26588 28
21271 26586 26589 28
21272 26586 26590 28
21273 26591 26592 28
21274 26591 26593 28
21275 26591 26594 28
21276 26591 26595 28
21277 26596 26597 28
21278 26596 26598 28
21279 26596 26599 28
21280 26596 26600 28
21281 26601 26602 28
21282 26601 26603 28
21283 26601 26604 28
21284 26601 26605 28
21285 26606 26607 28
21286 26606 26608 28
21287 26606 26609 28
21288 26606 26610 28
21289 26611 26612 28
21290 26611 26613 28
21291 26611 26614 28
21292 26611 26615 28
21293 26616 26617 28
21294 26616 26618 28
21295 26616 26619 28
21296 26616 26620 28
21297 26621 26622 28
21298 26621 26623 28
21299 26621 26624 28
21300 26621 26625 28
21301 26626 26627 28
21302 26626 26628 28
21303 26626 26629 28
21304 26626 26630 28
21305 26631 26632 28
21306 26631 26633 28
21307 26631 26634 28
21308 26631 26635 28
21309 26636 26637 28
21310 26636 26638 28
21311 26636 26639 28
21312 26636 26640 28
21313 26641 26642 28
21314 26641 26643 28
21315 26641 26644 28
21316 26641 26645 28
21317 26646 26647 28
21318 26646 26648 28
21319 26646 26649 28
21320 26646 26650 28
21321 26651 26652 28
21322 26651 26653 28
21323 26651 26654 28
21324 26651 26655 28
21325 26656 26657 28
21326 26656 26658 28
21327 26656 26659 28
21328 26656 26660 28
21329 26661 26662 28
21330 26661 26663 28
21331 26661 26664 28
21332 26661 26665 28
21333 26666 26667 28
21334 26666 26668 28
21335 26666 26669 28
21336 26666 26670 28
21337 26671 26672 28
21338 26671 26673 28
21339 26671 26674 28
21340 26671 26675 28
21341 26676 26677 28
21342 26676 26678 28
21343 26676 26679 28
21344 26676 26680 28
21345 26681 26682 28
21346 26681 26683 28
21347 26681 26684 28
21348 26681 26685 28
21349 26686 26687 28
21350 26686 26688 28
21351 26686 26689 28
21352 26686 26690 28
21353 26691 26692 28
21354 26691 26693 28
21355 26691 26694 28
21356 26691 26695 28
21357 26696 26697 28
21358 26696 26698 28
21359 26696 26699 28
21360 26696 26700 28
21361 26701 26702 28
21362 26701 26703 28
21363 26701 26704 28
21364 26701 26705 28
21365 26706 26707 28
21366 26706 26708 28
21367 26706 26709 28
21368 26706 26710 28
21369 26711 26712 28
21370 26711 26713 28
21371 26711 26714 28
21372 26711 26715 28
21373 26716 26717 28
21374 26716 26718 28
21375 26716 26719 28
21376 26716 26720 28
21377 26721 26722 28
21378 26721 26723 28
21379 26721 26724 28
21380 26721 26725 28
21381 26726 26727 28
21382 26726 26728 28
21383 26726 26729 28
21384 26726 26730 28
21385 26731 26732 28
21386 26731 26733 28
21387 26731 26734 28
21388 26731 26735 28
21389 26736 26737 28
21390 26736 26738 28
21391 26736 26739 28
21392 26736 26740 28
21393 26741 26742 28
21394 26741 26743 28
21395 26741 26744 28
21396 26741 26745 28
21397 26746 26747 28
21398 26746 26748 28
21399 26746 26749 28
21400 26746 26750 28
21401 26751 26752 28
21402 26751 26753 28
21403 26751 26754 28
21404 26751 26755 28
21405 26756 26757 28
21406 26756 26758 28
21407 26756 26759 28
21408 26756 26760 28
21409 26761 26762 28
21410 26761 26763 28
21411 26761 26764 28
21412 26761 26765 28
21413 26766 26767 28
21414 26766 26768 28
21415 26766 26769 28
21416 26766 26770 28
21417 26771 26772 28
21418 26771 26773 28
21419 26771 26774 28
21420 26771 26775 28
21421 26776 26777 28
21422 26776 26778 28
21423 26776 26779 28
21424 26776 26780 28
21425 26781 26782 28
21426 26781 26783 28
21427 26781 26784 28
21428 26781 26785 28
21429 26786 26787 28
21430 26786 26788 28
21431 26786 26789 28
21432 26786 26790 28
21433 26791 26792 28
21434 26791 26793 28
21435 26791 26794 28
21436 26791 26795 28
21437 26796 26797 28
21438 26796 26798 28
21439 26796 26799 28
21440 26796 26800 28
21441 26801 26802 28
21442 26801 26803 28
21443 26801 26804 28
21444 26801 26805 28
21445 26806 26807 28
21446 26806 26808 28
21447 26806 26809 28
21448 26806 26810 28
21449 26811 26812 28
21450 26811 26813 28
21451 26811 26814 28
21452 26811 26815 28
21453 26816 26817 28
21454 26816 26818 28
21455 26816 26819 28
21456 26816 26820 28
21457 26821 26822 28
21458 26821 26823 28
21459 26821 26824 28
21460 26821 26825 28
21461 26826 26827 28
21462 26826 26828 28
21463 26826 26829 28
21464 26826 26830 28
21465 26831 26832 28
21466 26831 26833 28
21467 26831 26834 28
21468 26831 26835 28
21469 26836 26837 28
21470 26836 26838 28
21471 26836 26839 28
21472 26836 26840 28
21473 26841 26842 28
21474 26841 26843 28
21475 26841 26844 28
21476 26841 26845 28
21477 26846 26847 28
21478 26846 26848 28
21479 26846 26849 28
21480 26846 26850 28
21481 26851 26852 28
21482 26851 26853 28
21483 26851 26854 28
21484 26851 26855 28
21485 26856 26857 28
21486 26856 26858 28
21487 26856 26859 28
21488 26856 26860 28
21489 26861 26862 28
21490 26861 26863 28
21491 26861 26864 28
21492 26861 26865 28
21493 26866 26867 28
21494 26866 26868 28
21495 26866 26869 28
21496 26866 26870 28
21497 26871 26872 28
21498 26871 26873 28
21499 26871 26874 28
21500 26871 26875 28
21501 26876 26877 28
21502 26876 26878 28
21503 26876 26879 28
21504 26876 26880 28
21505 26881 26882 28
21506 26881 26883 28
21507 26881 26884 28
21508 26881 26885 28
21509 26886 26887 28
21510 26886 26888 28
21511 26886 26889 28
21512 26886 26890 28
21513 26891 26892 28
21514 26891 26893 28
21515 26891 26894 28
21516 26891 26895 28
21517 26896 26897 28
21518 26896 26898 28
21519 26896 26899 28
21520 26896 26900 28
21521 26901 26902 28
21522 26901 26903 28
21523 26901 26904 28
21524 26901 26905 28
21525 26906 26907 28
21526 26906 26908 28
21527 26906 26909 28
21528 26906 26910 28
21529 26911 26912 28
21530 26911 26913 28
21531 26911 26914 28
21532 26911 26915 28
21533 26916 26917 28
21534 26916 26918 28
21535 26916 26919 28
21536 26916 26920 28
21537 26921 26922 28
21538 26921 26923 28
21539 26921 26924 28
21540 26921 26925 28
21541 26926 26927 28
21542 26926 26928 28
21543 26926 26929 28
21544 26926 26930 28
21545 26931 26932 28
21546 26931 26933 28
21547 26931 26934 28
21548 26931 26935 28
21549 26936 26937 28
21550 26936 26938 28
21551 26936 26939 28
21552 26936 26940 28
21553 26941 26942 28
21554 26941 26943 28
21555 26941 26944 28
21556 26941 26945 28
21557 26946 26947 28
21558 26946 26948 28
21559 26946 26949 28
21560 26946 26950 28
21561 26951 26952 28
21562 26951 26953 28
21563 26951 26954 28
21564 26951 26955 28
21565 26956 26957 28
21566 26956 26958 28
21567 26956 26959 28
21568 26956 26960 28
21569 26961 26962 28
21570 26961 26963 28
21571 26961 26964 28
21572 26961 26965 28
21573 26966 26967 28
21574 26966 26968 28
21575 26966 26969 28
21576 26966 26970 28
21577 26971 26972 28
21578 26971 26973 28
21579 26971 26974 28
21580 26971 26975 28
21581 26976 26977 28
21582 26976 26978 28
21583 26976 26979 28
21584 26976 26980 28
21585 26981 26982 28
21586 26981 26983 28
21587 26981 26984 28
21588 26981 26985 28
21589 26986 26987 28
21590 26986 26988 28
21591 26986 26989 28
21592 26986 26990 28
21593 26991 26992 28
21594 26991 26993 28
21595 26991 26994 28
21596 26991 26995 28
21597 26996 26997 28
21598 26996 26998 28
21599 26996 26999 28
21600 26996 27000 28
21601 27001 27002 28
21602 27001 27003 28
21603 27001 27004 28
21604 27001 27005 28
21605 27006 27007 28
21606 27006 27008 28
21607 27006 27009 28
21608 27006 27010 28
21609 27011 27012 28
21610 27011 27013 28
21611 27011 27014 28
21612 27011 27015 28
21613 27016 27017 28
21614 27016 27018 28
21615 27016 27019 28
21616 27016 27020 28
21617 27021 27022 28
21618 27021 27023 28
21619 27021 27024 28
21620 27021 27025 28
21621 27026 27027 28
21622 27026 27028 28
21623 27026 27029 28
21624 27026 27030 28
21625 27031 27032 28
21626 27031 27033 28
21627 27031 27034 28
21628 27031 27035 28
21629 27036 27037 28
21630 27036 27038 28
21631 27036 27039 28
21632 27036 27040 28
21633 27041 27042 28
21634 27041 27043 28
21635 27041 27044 28
21636 27041 27045 28
21637 27046 27047 28
21638 27046 27048 28
21639 27046 27049 28
21640 27046 27050 28
21641 27051 27052 28
21642 27051 27053 28
21643 27051 27054 28
21644 27051 27055 28
21645 27056 27057 28
21646 27056 27058 28
21647 27056 27059 28
21648 27056 27060 28
21649 27061 27062 28
21650 27061 27063 28
21651 27061 27064 28
21652 27061 27065 28
21653 27066 27067 28
21654 27066 27068 28
21655 27066 27069 28
21656 27066 27070 28
21657 27071 27072 28
21658 27071 27073 28
21659 27071 27074 28
21660 27071 27075 28
21661 27076 27077 28
21662 27076 27078 28
21663 27076 27079 28
21664 27076 27080 28
21665 27081 27082 28
21666 27081 27083 28
21667 27081 27084 28
21668 27081 27085 28
21669 27086 27087 28
21670 27086 27088 28
21671 27086 27089 28
21672 27086 27090 28
21673 27091 27092 28
21674 27091 27093 28
21675 27091 27094 28
21676 27091 27095 28
21677 27096 27097 28
21678 27096 27098 28
21679 27096 27099 28
21680 27096 27100 28
21681 27101 27102 28
21682 27101 27103 28
21683 27101 27104 28
21684 27101 27105 28
21685 27106 27107 28
21686 27106 27108 28
21687 27106 27109 28
21688 27106 27110 28
21689 27111 27112 28
21690 27111 27113 28
21691 27111 27114 28
21692 27111 27115 28
21693 27116 27117 28
21694 27116 27118 28
21695 27116 27119 28
21696 27116 27120 28
21697 27121 27122 28
21698 27121 27123 28
21699 27121 27124 28
21700 27121 27125 28
21701 27126 27127 28
21702 27126 27128 28
21703 27126 27129 28
21704 27126 27130 28
21705 27131 27132 28
21706 27131 27133 28
21707 27131 27134 28
21708 27131 27135 28
21709 27136 27137 28
21710 27136 27138 28
21711 27136 27139 28
21712 27136 27140 28
21713 27141 27142 28
21714 27141 27143 28
21715 27141 27144 28
21716 27141 27145 28
21717 27146 27147 28
21718 27146 27148 28
21719 27146 27149 28
21720 27146 27150 28
21721 27151 27152 28
21722 27151 27153 28
21723 27151 27154 28
21724 27151 27155 28
21725 27156 27157 28
21726 27156 27158 28
21727 27156 27159 28
21728 27156 27160 28
21729 27161 27162 28
21730 27161 27163 28
21731 27161 27164 28
21732 27161 27165 28
21733 27166 27167 28
21734 27166 27168 28
21735 27166 27169 28
21736 27166 27170 28
21737 27171 27172 28
21738 27171 27173 28
21739 27171 27174 28
21740 27171 27175 28
21741 27176 27177 28
21742 27176 27178 28
21743 27176 27179 28
21744 27176 27180 28
21745 27181 27182 28
21746 27181 27183 28
21747 27181 27184 28
21748 27181 27185 28
21749 27186 27187 28
21750 27186 27188 28
21751 27186 27189 28
21752 27186 27190 28
21753 27191 27192 28
21754 27191 27193 28
21755 27191 27194 28
21756 27191 27195 28
21757 27196 27197 28
21758 27196 27198 28
21759 27196 27199 28
21760 27196 27200 28
21761 27201 27202 28
21762 27201 27203 28
21763 27201 27204 28
21764 27201 27205 28
21765 27206 27207 28
21766 27206 27208 28
21767 27206 27209 28
21768 27206 27210 28
21769 27211 27212 28
21770 27211 27213 28
21771 27211 27214 28
21772 27211 27215 28
21773 27216 27217 28
21774 27216 27218 28
21775 27216 27219 28
21776 27216 27220 28
21777 27221 27222 28
21778 27221 27223 28
21779 27221 27224 28
21780 27221 27225 28
21781 27226 27227 28
21782 27226 27228 28
21783 27226 27229 28
21784 27226 27230 28
21785 27231 27232 28
21786 27231 27233 28
21787 27231 27234 28
21788 27231 27235 28
21789 27236 27237 28
21790 27236 27238 28
21791 27236 27239 28
21792 27236 27240 28
21793 27241 27242 28
21794 27241 27243 28
21795 27241 27244 28
21796 27241 27245 28
21797 27246 27247 28
21798 27246 27248 28
21799 27246 27249 28
21800 27246 27250 28
21801 27251 27252 28
21802 27251 27253 28
21803 27251 27254 28
21804 27251 27255 28
21805 27256 27257 28
21806 27256 27258 28
21807 27256 27259 28
21808 27256 27260 28
21809 27261 27262 28
21810 27261 27263 28
21811 27261 27264 28
21812 27261 27265 28
21813 27266 27267 28
21814 27266 27268 28
21815 27266 27269 28
21816 27266 27270 28
21817 27271 27272 28
21818 27271 27273 28
21819 27271 27274 28
21820 27271 27275 28
21821 27276 27277 28
21822 27276 27278 28
21823 27276 27279 28
21824 27276 27280 28
21825 27281 27282 28
21826 27281 27283 28
21827 27281 27284 28
21828 27281 27285 28
21829 27286 27287 28
21830 27286 27288 28
21831 27286 27289 28
21832 27286 27290 28
21833 27291 27292 28
21834 27291 27293 28
21835 27291 27294 28
21836 27291 27295 28
21837 27296 27297 28
21838 27296 27298 28
21839 27296 27299 28
21840 27296 27300 28
21841 27301 27302 28
21842 27301 27303 28
21843 27301 27304 28
21844 27301 27305 28
21845 27306 27307 28
21846 27306 27308 28
21847 27306 27309 28
21848 27306 27310 28
21849 27311 27312 28
21850 27311 27313 28
21851 27311 27314 28
21852 27311 27315 28
21853 27316 27317 28
21854 27316 27318 28
21855 27316 27319 28
21856 27316 27320 28
21857 27321 27322 28
21858 27321 27323 28
21859 27321 27324 28
21860 27321 27325 28
21861 27326 27327 28
21862 27326 27328 28
21863 27326 27329 28
21864 27326 27330 28
21865 27331 27332 28
21866 27331 27333 28
21867 27331 27334 28
21868 27331 27335 28
21869 27336 27337 28
21870 27336 27338 28
21871 27336 27339 28
21872 27336 27340 28
21873 27341 27342 28
21874 27341 27343 28
21875 27341 27344 28
21876 27341 27345 28
21877 27346 27347 28
21878 27346 27348 28
21879 27346 27349 28
21880 27346 27350 28
21881 27351 27352 28
21882 27351 27353 28
21883 27351 27354 28
21884 27351 27355 28
21885 27356 27357 28
21886 27356 27358 28
21887 27356 27359 28
21888 27356 27360 28
21889 27361 27362 28
21890 27361 27363 28
21891 27361 27364 28
21892 27361 27365 28
21893 27366 27367 28
21894 27366 27368 28
21895 27366 27369 28
21896 27366 27370 28
21897 27371 27372 28
21898 27371 27373 28
21899 27371 27374 28
21900 27371 27375 28
21901 27376 27377 28
21902 27376 27378 28
21903 27376 27379 28
21904 27376 27380 28
21905 27381 27382 28
21906 27381 27383 28
21907 27381 27384 28
21908 27381 27385 28
21909 27386 27387 28
21910 27386 27388 28
21911 27386 27389 28
21912 27386 27390 28
21913 27391 27392 28
21914 27391 27393 28
21915 27391 27394 28
21916 27391 27395 28
21917 27396 27397 28
21918 27396 27398 28
21919 27396 27399 28
21920 27396 27400 28
21921 27401 27402 28
21922 27401 27403 28
21923 27401 27404 28
21924 27401 27405 28
21925 27406 27407 28
21926 27406 27408 28
21927 27406 27409 28
21928 27406 27410 28
21929 27411 27412 28
21930 27411 27413 28
21931 27411 27414 28
21932 27411 27415 28
21933 27416 27417 28
21934 27416 27418 28
21935 27416 27419 28
21936 27416 27420 28
21937 27421 27422 28
21938 27421 27423 28
21939 27421 27424 28
21940 27421 27425 28
21941 27426 27427 28
21942 27426 27428 28
21943 27426 27429 28
21944 27426 27430 28
21945 27431 27432 28
21946 27431 27433 28
21947 27431 27434 28
21948 27431 27435 28
21949 27436 27437 28
21950 27436 27438 28
21951 27436 27439 28
21952 27436 27440 28
21953 27441 27442 28
21954 27441 27443 28
21955 27441 27444 28
21956 27441 27445 28
21957 27446 27447 28
21958 27446 27448 28
21959 27446 27449 28
21960 27446 27450 28
21961 27451 27452 28
21962 27451 27453 28
21963 27451 27454 28
21964 27451 27455 28
21965 27456 27457 28
21966 27456 27458 28
21967 27456 27459 28
21968 27456 27460 28
21969 27461 27462 28
21970 27461 27463 28
21971 27461 27464 28
21972 27461 27465 28
21973 27466 27467 28
21974 27466 27468 28
21975 27466 27469 28
21976 27466 27470 28
21977 27471 27472 28
21978 27471 27473 28
21979 27471 27474 28
21980 27471 27475 28
21981 27476 27477 28
21982 27476 27478 28
21983 27476 27479 28
21984 27476 27480 28
21985 27481 27482 28
21986 27481 27483 28
21987 27481 27484 28
21988 27481 27485 28
21989 27486 27487 28
21990 27486 27488 28
21991 27486 27489 28
21992 27486 27490 28
21993 27491 27492 28
21994 27491 27493 28
21995 27491 27494 28
21996 27491 27495 28
21997 27496 27497 28
21998 27496 27498 28
21999 27496 27499 28
22000 27496 27500 28
22001 27501 27502 28
22002 27501 27503 28
22003 27501 27504 28
22004 27501 27505 28
22005 27506 27507 28
22006 27506 27508 28
22007 27506 27509 28
22008 27506 27510 28
22009 27511 27512 28
22010 27511 27513 28
22011 27511 27514 28
22012 27511 27515 28
22013 27516 27517 28
22014 27516 27518 28
22015 27516 27519 28
22016 27516 27520 28
22017 27521 27522 28
22018 27521 27523 28
22019 27521 27524 28
22020 27521 27525 28
22021 27526 27527 28
22022 27526 27528 28
22023 27526 27529 28
22024 27526 27530 28
22025 27531 27532 28
22026 27531 27533 28
22027 27531 27534 28
22028 27531 27535 28
22029 27536 27537 28
22030 27536 27538 28
22031 27536 27539 28
22032 27536 27540 28
22033 27541 27542 28
22034 27541 27543 28
22035 27541 27544 28
22036 27541 27545 28
22037 27546 27547 28
22038 27546 27548 28
22039 27546 27549 28
22040 27546 27550 28
22041 27551 27552 28
22042 27551 27553 28
22043 27551 27554 28
22044 27551 27555 28
22045 27556 27557 28
22046 27556 27558 28
22047 27556 27559 28
22048 27556 27560 28
22049 27561 27562 28
22050 27561 27563 28
22051 27561 27564 28
22052 27561 27565 28
22053 27566 27567 28
22054 27566 27568 28
22055 27566 27569 28
22056 27566 27570 28
22057 27571 27572 28
22058 27571 27573 28
22059 27571 27574 28
22060 27571 27575 28
22061 27576 27577 28
22062 27576 27578 28
22063 27576 27579 28
22064 27576 27580 28
22065 27581 27582 28
22066 27581 27583 28
22067 27581 27584 28
22068 27581 27585 28
22069 27586 27587 28
22070 27586 27588 28
22071 27586 27589 28
22072 27586 27590 28
22073 27591 27592 28
22074 27591 27593 28
22075 27591 27594 28
22076 27591 27595 28
22077 27596 27597 28
22078 27596 27598 28
22079 27596 27599 28
22080 27596 27600 28
22081 27601 27602 28
22082 27601 27603 28
22083 27601 27604 28
22084 27601 27605 28
22085 27606 27607 28
22086 27606 27608 28
22087 27606 27609 28
22088 27606 27610 28
22089 27611 27612 28
22090 27611 27613 28
22091 27611 27614 28
22092 27611 27615 28
22093 27616 27617 28
22094 27616 27618 28
22095 27616 27619 28
22096 27616 27620 28
22097 27621 27622 28
22098 27621 27623 28
22099 27621 27624 28
22100 27621 27625 28
22101 27626 27627 28
22102 27626 27628 28
22103 27626 27629 28
22104 27626 27630 28
22105 27631 27632 28
22106 27631 27633 28
22107 27631 27634 28
22108 27631 27635 28
22109 27636 27637 28
22110 27636 27638 28
22111 27636 27639 28
22112 27636 27640 28
22113 27641 27642 28
22114 27641 27643 28
22115 27641 27644 28
22116 27641 27645 28
22117 27646 27647 28
22118 27646 27648 28
22119 27646 27649 28
22120 27646 27650 28
22121 27651 27652 28
22122 27651 27653 28
22123 27651 27654 28
22124 27651 27655 28
22125 27656 27657 28
22126 27656 27658 28
22127 27656 27659 28
22128 27656 27660 28
22129 27661 27662 28
22130 27661 27663 28
22131 27661 27664 28
22132 27661 27665 28
22133 27666 27667 28
22134 27666 27668 28
22135 27666 27669 28
22136 27666 27670 28
22137 27671 27672 28
22138 27671 27673 28
22139 27671 27674 28
22140 27671 27675 28
22141 27676 27677 28
22142 27676 27678 28
22143 27676 27679 28
22144 27676 27680 28
22145 27681 27682 28
22146 27681 27683 28
22147 27681 27684 28
22148 27681 27685 28
22149 27686 27687 28
22150 27686 27688 28
22151 27686 27689 28
22152 27686 27690 28
22153 27691 27692 28
22154 27691 27693 28
22155 27691 27694 28
22156 27691 27695 28
22157 27696 27697 28
22158 27696 27698 28
22159 27696 27699 28
22160 27696 27700 28
22161 27701 27702 28
22162 27701 27703 28
22163 27701 27704 28
22164 27701 27705 28
22165 27706 27707 28
22166 27706 27708 28
22167 27706 27709 28
22168 27706 27710 28
22169 27711 27712 28
22170 27711 27713 28
22171 27711 27714 28
22172 27711 27715 28
22173 27716 27717 28
22174 27716 27718 28
22175 27716 27719 28
22176 27716 27720 28
22177 27721 27722 28
22178 27721 27723 28
22179 27721 27724 28
22180 27721 27725 28
22181 27726 27727 28
22182 27726 27728 28
22183 27726 27729 28
22184 27726 27730 28
22185 27731 27732 28
22186 27731 27733 28
22187 27731 27734 28
22188 27731 27735 28
22189 27736 27737 28
22190 27736 27738 28
22191 27736 27739 28
22192 27736 27740 28
22193 27741 27742 28
22194 27741 27743 28
22195 27741 27744 28
22196 27741 27745 28
22197 27746 27747 28
22198 27746 27748 28
22199 27746 27749 28
22200 27746 27750 28
22201 27751 27752 28
22202 27751 27753 28
22203 27751 27754 28
22204 27751 27755 28
22205 27756 27757 28
22206 27756 27758 28
22207 27756 27759 28
22208 27756 27760 28
22209 27761 27762 28
22210 27761 27763 28
22211 27761 27764 28
22212 27761 27765 28
22213 27766 27767 28
22214 27766 27768 28
22215 27766 27769 28
22216 27766 27770 28
22217 27771 27772 28
22218 27771 27773 28
22219 27771 27774 28
22220 27771 27775 28
22221 27776 27777 28
22222 27776 27778 28
22223 27776 27779 28
22224 27776 27780 28
22225 27781 27782 28
22226 27781 27783 28
22227 27781 27784 28
22228 27781 27785 28
22229 27786 27787 28
22230 27786 27788 28
22231 27786 27789 28
22232 27786 27790 28
22233 27791 27792 28
22234 27791 27793 28
22235 27791 27794 28
22236 27791 27795 28
22237 27796 27797 28
22238 27796 27798 28
22239 27796 27799 28
22240 27796 27800 28
22241 27801 27802 28
22242 27801 27803 28
22243 27801 27804 28
22244 27801 27805 28
22245 27806 27807 28
22246 27806 27808 28
22247 27806 27809 28
22248 27806 27810 28
22249 27811 27812 28
22250 27811 27813 28
22251 27811 27814 28
22252 27811 27815 28
22253 27816 27817 28
22254 27816 27818 28
22255 27816 27819 28
22256 27816 27820 28
22257 27821 27822 28
22258 27821 27823 28
22259 27821 27824 28
22260 27821 27825 28
22261 27826 27827 28
22262 27826 27828 28
22263 27826 27829 28
22264 27826 27830 28
22265 27831 27832 28
22266 27831 27833 28
22267 27831 27834 28
22268 27831 27835 28
22269 27836 27837 28
22270 27836 27838 28
22271 27836 27839 28
22272 27836 27840 28
22273 27841 27842 28
22274 27841 27843 28
22275 27841 27844 28
22276 27841 27845 28
22277 27846 27847 28
22278 27846 27848 28
22279 27846 27849 28
22280 27846 27850 28
22281 27851 27852 28
22282 27851 27853 28
22283 27851 27854 28
22284 27851 27855 28
22285 27856 27857 28
22286 27856 27858 28
22287 27856 27859 28
22288 27856 27860 28
22289 27861 27862 28
22290 27861 27863 28
22291 27861 27864 28
22292 27861 27865 28
22293 27866 27867 28
22294 27866 27868 28
22295 27866 27869 28
22296 27866 27870 28
22297 27871 27872 28
22298 27871 27873 28
22299 27871 27874 28
22300 27871 27875 28
22301 27876 27877 28
22302 27876 27878 28
22303 27876 27879 28
22304 27876 27880 28
22305 27881 27882 28
22306 27881 27883 28
22307 27881 27884 28
22308 27881 27885 28
22309 27886 27887 28
22310 27886 27888 28
22311 27886 27889 28
22312 27886 27890 28
22313 27891 27892 28
22314 27891 27893 28
22315 27891 27894 28
22316 27891 27895 28
22317 27896 27897 28
22318 27896 27898 28
22319 27896 27899 28
22320 27896 27900 28
22321 27901 27902 28
22322 27901 27903 28
22323 27901 27904 28
22324 27901 27905 28
22325 27906 27907 28
22326 27906 27908 28
22327 27906 27909 28
22328 27906 27910 28
22329 27911 27912 28
22330 27911 27913 28
22331 27911 27914 28
22332 27911 27915 28
22333 27916 27917 28
22334 27916 27918 28
22335 27916 27919 28
22336 27916 27920 28
22337 27921 27922 28
22338 27921 27923 28
22339 27921 27924 28
22340 27921 27925 28
22341 27926 27927 28
22342 27926 27928 28
22343 27926 27929 28
22344 27926 27930 28
22345 27931 27932 28
22346 27931 27933 28
22347 27931 27934 28
22348 27931 27935 28
22349 27936 27937 28
22350 27936 27938 28
22351 27936 27939 28
22352 27936 27940 28
22353 27941 27942 28
22354 27941 27943 28
22355 27941 27944 28
22356 27941 27945 28
22357 27946 27947 28
22358 27946 27948 28
22359 27946 27949 28
22360 27946 27950 28
22361 27951 27952 28
22362 27951 27953 28
22363 27951 27954 28
22364 27951 27955 28
22365 27956 27957 28
22366 27956 27958 28
22367 27956 27959 28
22368 27956 27960 28
22369 27961 27962 28
22370 27961 27963 28
22371 27961 27964 28
22372 27961 27965 28
22373 27966 27967 28
22374 27966 27968 28
22375 27966 27969 28
22376 27966 27970 28
22377 27971 27972 28
22378 27971 27973 28
22379 27971 27974 28
22380 27971 27975 28
22381 27976 27977 28
22382 27976 27978 28
22383 27976 27979 28
22384 27976 27980 28
22385 27981 27982 28
22386 27981 27983 28
22387 27981 27984 28
22388 27981 27985 28
22389 27986 27987 28
22390 27986 27988 28
22391 27986 27989 28
22392 27986 27990 28
22393 27991 27992 28
22394 27991 27993 28
22395 27991 27994 28
22396 27991 27995 28
22397 27996 27997 28
22398 27996 27998 28
22399 27996 27999 28
22400 27996 28000 28
22401 28001 28002 28
22402 28001 28003 28
22403 28001 28004 28
22404 28001 28005 28
22405 28006 28007 28
22406 28006 28008 28
22407 28006 28009 28
22408 28006 28010 28
22409 28011 28012 28
22410 28011 28013 28
22411 28011 28014 28
22412 28011 28015 28
22413 28016 28017 28
22414 28016 28018 28
22415 28016 28019 28
22416 28016 28020 28
22417 28021 28022 28
22418 28021 28023 28
22419 28021 28024 28
22420 28021 28025 28
22421 28026 28027 28
22422 28026 28028 28
22423 28026 28029 28
22424 28026 28030 28
22425 28031 28032 28
22426 28031 28033 28
22427 28031 28034 28
22428 28031 28035 28
22429 28036 28037 28
22430 28036 28038 28
22431 28036 28039 28
22432 28036 28040 28
22433 28041 28042 28
22434 28041 28043 28
22435 28041 28044 28
22436 28041 28045 28
22437 28046 28047 28
22438 28046 28048 28
22439 28046 28049 28
22440 28046 28050 28
22441 28051 28052 28
22442 28051 28053 28
22443 28051 28054 28
22444 28051 28055 28
22445 28056 28057 28
22446 28056 28058 28
22447 28056 28059 28
22448 28056 28060 28
22449 28061 28062 28
22450 28061 28063 28
22451 28061 28064 28
22452 28061 28065 28
22453 28066 28067 28
22454 28066 28068 28
22455 28066 28069 28
22456 28066 28070 28
22457 28071 28072 28
22458 28071 28073 28
22459 28071 28074 28
22460 28071 28075 28
22461 28076 28077 28
22462 28076 28078 28
22463 28076 28079 28
22464 28076 28080 28
22465 28081 28082 28
22466 28081 28083 28
22467 28081 28084 28
22468 28081 28085 28
22469 28086 28087 28
22470 28086 28088 28
22471 28086 28089 28
22472 28086 28090 28
22473 28091 28092 28
22474 28091 28093 28
22475 28091 28094 28
22476 28091 28095 28
22477 28096 28097 28
22478 28096 28098 28
22479 28096 28099 28
22480 28096 28100 28
22481 28101 28102 28
22482 28101 28103 28
22483 28101 28104 28
22484 28101 28105 28
22485 28106 28107 28
22486 28106 28108 28
22487 28106 28109 28
22488 28106 28110 28
22489 28111 28112 28
22490 28111 28113 28
22491 28111 28114 28
22492 28111 28115 28
22493 28116 28117 28
22494 28116 28118 28
22495 28116 28119 28
22496 28116 28120 28
22497 28121 28122 28
22498 28121 28123 28
22499 28121 28124 28
22500 28121 28125 28
22501 28126 28127 28
22502 28126 28128 28
22503 28126 28129 28
22504 28126 28130 28
22505 28131 28132 28
22506 28131 28133 28
22507 28131 28134 28
22508 28131 28135 28
22509 28136 28137 28
22510 28136 28138 28
22511 28136 28139 28
22512 28136 28140 28
22513 28141 28142 28
22514 28141 28143 28
22515 28141 28144 28
22516 28141 28145 28
22517 28146 28147 28
22518 28146 28148 28
22519 28146 28149 28
22520 28146 28150 28
22521 28151 28152 28
22522 28151 28153 28
22523 28151 28154 28
22524 28151 28155 28
22525 28156 28157 28
22526 28156 28158 28
22527 28156 28159 28
22528 28156 28160 28
22529 28161 28162 28
22530 28161 28163 28
22531 28161 28164 28
22532 28161 28165 28
22533 28166 28167 28
22534 28166 28168 28
22535 28166 28169 28
22536 28166 28170 28
22537 28171 28172 28
22538 28171 28173 28
22539 28171 28174 28
22540 28171 28175 28
22541 28176 28177 28
22542 28176 28178 28
22543 28176 28179 28
22544 28176 28180 28
22545 28181 28182 28
22546 28181 28183 28
22547 28181 28184 28
22548 28181 28185 28
22549 28186 28187 28
22550 28186 28188 28
22551 28186 28189 28
22552 28186 28190 28
22553 28191 28192 28
22554 28191 28193 28
22555 28191 28194 28
22556 28191 28195 28
22557 28196 28197 28
22558 28196 28198 28
22559 28196 28199 28
22560 28196 28200 28
22561 28201 28202 28
22562 28201 28203 28
22563 28201 28204 28
22564 28201 28205 28
22565 28206 28207 28
22566 28206 28208 28
22567 28206 28209 28
22568 28206 28210 28
22569 28211 28212 28
22570 28211 28213 28
22571 28211 28214 28
22572 28211 28215 28
22573 28216 28217 28
22574 28216 28218 28
22575 28216 28219 28
22576 28216 28220 28
22577 28221 28222 28
22578 28221 28223 28
22579 28221 28224 28
22580 28221 28225 28
22581 28226 28227 28
22582 28226 28228 28
22583 28226 28229 28
22584 28226 28230 28
22585 28231 28232 28
22586 28231 28233 28
22587 28231 28234 28
22588 28231 28235 28
22589 28236 28237 28
22590 28236 28238 28
22591 28236 28239 28
22592 28236 28240 28
22593 28241 28242 28
22594 28241 28243 28
22595 28241 28244 28
22596 28241 28245 28
22597 28246 28247 28
22598 28246 28248 28
22599 28246 28249 28
22600 28246 28250 28
22601 28251 28252 28
22602 28251 28253 28
22603 28251 28254 28
22604 28251 28255 28
22605 28256 28257 28
22606 28256 28258 28
22607 28256 28259 28
22608 28256 28260 28
22609 28261 28262 28
22610 28261 28263 28
22611 28261 28264 28
22612 28261 28265 28
22613 28266 28267 28
22614 28266 28268 28
22615 28266 28269 28
22616 28266 28270 28
22617 28271 28272 28
22618 28271 28273 28
22619 28271 28274 28
22620 28271 28275 28
22621 28276 28277 28
22622 28276 28278 28
22623 28276 28279 28
22624 28276 28280 28
22625 28281 28282 28
22626 28281 28283 28
22627 28281 28284 28
22628 28281 28285 28
22629 28286 28287 28
22630 28286 28288 28
22631 28286 28289 28
22632 28286 28290 28
22633 28291 28292 28
22634 28291 28293 28
22635 28291 28294 28
22636 28291 28295 28
22637 28296 28297 28
22638 28296 28298 28
22639 28296 28299 28
22640 28296 28300 28
22641 28301 28302 28
22642 28301 28303 28
22643 28301 28304 28
22644 28301 28305 28
22645 28306 28307 28
22646 28306 28308 28
22647 28306 28309 28
22648 28306 28310 28
22649 28311 28312 28
22650 28311 28313 28
22651 28311 28314 28
22652 28311 28315 28
22653 28316 28317 28
22654 28316 28318 28
22655 28316 28319 28
22656 28316 28320 28
22657 28321 28322 28
22658 28321 28323 28
22659 28321 28324 28
22660 28321 28325 28
22661 28326 28327 28
22662 28326 28328 28
22663 28326 28329 28
22664 28326 28330 28
22665 28331 28332 28
22666 28331 28333 28
22667 28331 28334 28
22668 28331 28335 28
22669 28336 28337 28
22670 28336 28338 28
22671 28336 28339 28
22672 28336 28340 28
22673 28341 28342 28
22674 28341 28343 28
22675 28341 28344 28
22676 28341 28345 28
22677 28346 28347 28
22678 28346 28348 28
22679 28346 28349 28
22680 28346 28350 28
22681 28351 28352 28
22682 28351 28353 28
22683 28351 28354 28
22684 28351 28355 28
22685 28356 28357 28
22686 28356 28358 28
22687 28356 28359 28
22688 28356 28360 28
22689 28361 28362 28
22690 28361 28363 28
22691 28361 28364 28
22692 28361 28365 28
22693 28366 28367 28
22694 28366 28368 28
22695 28366 28369 28
22696 28366 28370 28
22697 28371 28372 28
22698 28371 28373 28
22699 28371 28374 28
22700 28371 28375 28
22701 28376 28377 28
22702 28376 28378 28
22703 28376 28379 28
22704 28376 28380 28
22705 28381 28382 28
22706 28381 28383 28
22707 28381 28384 28
22708 28381 28385 28
22709 28386 28387 28
22710 28386 28388 28
22711 28386 28389 28
22712 28386 28390 28
22713 28391 28392 28
22714 28391 28393 28
22715 28391 28394 28
22716 28391 28395 28
22717 28396 28397 28
22718 28396 28398 28
22719 28396 28399 28
22720 28396 28400 28
22721 28401 28402 28
22722 28401 28403 28
22723 28401 28404 28
22724 28401 28405 28
22725 28406 28407 28
22726 28406 28408 28
22727 28406 28409 28
22728 28406 28410 28
22729 28411 28412 28
22730 28411 28413 28
22731 28411 28414 28
22732 28411 28415 28
22733 28416 28417 28
22734 28416 28418 28
22735 28416 28419 28
22736 28416 28420 28
22737 28421 28422 28
22738 28421 28423 28
22739 28421 28424 28
22740 28421 28425 28
22741 28426 28427 28
22742 28426 28428 28
22743 28426 28429 28
22744 28426 28430 28
22745 28431 28432 28
22746 28431 28433 28
22747 28431 28434 28
22748 28431 28435 28
22749 28436 28437 28
22750 28436 28438 28
22751 28436 28439 28
22752 28436 28440 28
22753 28441 28442 28
22754 28441 28443 28
22755 28441 28444 28
22756 28441 28445 28
22757 28446 28447 28
22758 28446 28448 28
22759 28446 28449 28
22760 28446 28450 28
22761 28451 28452 28
22762 28451 28453 28
22763 28451 28454 28
22764 28451 28455 28
22765 28456 28457 28
22766 28456 28458 28
22767 28456 28459 28
22768 28456 28460 28
22769 28461 28462 28
22770 28461 28463 28
22771 28461 28464 28
22772 28461 28465 28
22773 28466 28467 28
22774 28466 28468 28
22775 28466 28469 28
22776 28466 28470 28
22777 28471 28472 28
22778 28471 28473 28
22779 28471 28474 28
22780 28471 28475 28
22781 28476 28477 28
22782 28476 28478 28
22783 28476 28479 28
22784 28476 28480 28
22785 28481 28482 28
22786 28481 28483 28
22787 28481 28484 28
22788 28481 28485 28
22789 28486 28487 28
22790 28486 28488 28
22791 28486 28489 28
22792 28486 28490 28
22793 28491 28492 28
22794 28491 28493 28
22795 28491 28494 28
22796 28491 28495 28
22797 28496 28497 28
22798 28496 28498 28
22799 28496 28499 28
22800 28496 28500 28
22801 28501 28502 28
22802 28501 28503 28
22803 28501 28504 28
22804 28501 28505 28
22805 28506 28507 28
22806 28506 28508 28
22807 28506 28509 28
22808 28506 28510 28
22809 28511 28512 28
22810 28511 28513 28
22811 28511 28514 28
22812 28511 28515 28
22813 28516 28517 28
22814 28516 28518 28
22815 28516 28519 28
22816 28516 28520 28
22817 28521 28522 28
22818 28521 28523 28
22819 28521 28524 28
22820 28521 28525 28
22821 28526 28527 28
22822 28526 28528 28
22823 28526 28529 28
22824 28526 28530 28
22825 28531 28532 28
22826 28531 28533 28
22827 28531 28534 28
22828 28531 28535 28
22829 28536 28537 28
22830 28536 28538 28
22831 28536 28539 28
22832 28536 28540 28
22833 28541 28542 28
22834 28541 28543 28
22835 28541 28544 28
22836 28541 28545 28
22837 28546 28547 28
22838 28546 28548 28
22839 28546 28549 28
22840 28546 28550 28
22841 28551 28552 28
22842 28551 28553 28
22843 28551 28554 28
22844 28551 28555 28
22845 28556 28557 28
22846 28556 28558 28
22847 28556 28559 28
22848 28556 28560 28
22849 28561 28562 28
22850 28561 28563 28
22851 28561 28564 28
22852 28561 28565 28
22853 28566 28567 28
22854 28566 28568 28
22855 28566 28569 28
22856 28566 28570 28
22857 28571 28572 28
22858 28571 28573 28
22859 28571 28574 28
22860 28571 28575 28
22861 28576 28577 28
22862 28576 28578 28
22863 28576 28579 28
22864 28576 28580 28
22865 28581 28582 28
22866 28581 28583 28
22867 28581 28584 28
22868 28581 28585 28
22869 28586 28587 28
22870 28586 28588 28
22871 28586 28589 28
22872 28586 28590 28
22873 28591 28592 28
22874 28591 28593 28
22875 28591 28594 28
22876 28591 28595 28
22877 28596 28597 28
22878 28596 28598 28
22879 28596 28599 28
22880 28596 28600 28
22881 28601 28602 28
22882 28601 28603 28
22883 28601 28604 28
22884 28601 28605 28
22885 28606 28607 28
22886 28606 28608 28
22887 28606 28609 28
22888 28606 28610 28
22889 28611 28612 28
22890 28611 28613 28
22891 28611 28614 28
22892 28611 28615 28
22893 28616 28617 28
22894 28616 28618 28
22895 28616 28619 28
22896 28616 28620 28
22897 28621 28622 28
22898 28621 28623 28
22899 28621 28624 28
22900 28621 28625 28
22901 28626 28627 28
22902 28626 28628 28
22903 28626 28629 28
22904 28626 28630 28
22905 28631 28632 28
22906 28631 28633 28
22907 28631 28634 28
22908 28631 28635 28
22909 28636 28637 28
22910 28636 28638 28
22911 28636 28639 28
22912 28636 28640 28
22913 28641 28642 28
22914 28641 28643 28
22915 28641 28644 28
22916 28641 28645 28
22917 28646 28647 28
22918 28646 28648 28
22919 28646 28649 28
22920 28646 28650 28
22921 28651 28652 28
22922 28651 28653 28
22923 28651 28654 28
22924 28651 28655 28
22925 28656 28657 28
22926 28656 28658 28
22927 28656 28659 28
22928 28656 28660 28
22929 28661 28662 28
22930 28661 28663 28
22931 28661 28664 28
22932 28661 28665 28
22933 28666 28667 28
22934 28666 28668 28
22935 28666 28669 28
22936 28666 28670 28
22937 28671 28672 28
22938 28671 28673 28
22939 28671 28674 28
22940 28671 28675 28
22941 28676 28677 28
22942 28676 28678 28
22943 28676 28679 28
22944 28676 28680 28
22945 28681 28682 28
22946 28681 28683 28
22947 28681 28684 28
22948 28681 28685 28
22949 28686 28687 28
22950 28686 28688 28
22951 28686 28689 28
22952 28686 28690 28
22953 28691 28692 28
22954 28691 28693 28
22955 28691 28694 28
22956 28691 28695 28
22957 28696 28697 28
22958 28696 28698 28
22959 28696 28699 28
22960 28696 28700 28
22961 28701 28702 28
22962 28701 28703 28
22963 28701 28704 28
22964 28701 28705 28
22965 28706 28707 28
22966 28706 28708 28
22967 28706 28709 28
22968 28706 28710 28
22969 28711 28712 28
22970 28711 28713 28
22971 28711 28714 28
22972 28711 28715 28
22973 28716 28717 28
22974 28716 28718 28
22975 28716 28719 28
22976 28716 28720 28
22977 28721 28722 28
22978 28721 28723 28
22979 28721 28724 28
22980 28721 28725 28
22981 28726 28727 28
22982 28726 28728 28
22983 28726 28729 28
22984 28726 28730 28
22985 28731 28732 28
22986 28731 28733 28
22987 28731 28734 28
22988 28731 28735 28
22989 28736 28737 28
22990 28736 28738 28
22991 28736 28739 28
22992 28736 28740 28
22993 28741 28742 28
22994 28741 28743 28
22995 28741 28744 28
22996 28741 28745 28
22997 28746 28747 28
22998 28746 28748 28
22999 28746 28749 28
23000 28746 28750 28
23001 28751 28752 28
23002 28751 28753 28
23003 28751 28754 28
23004 28751 28755 28
23005 28756 28757 28
23006 28756 28758 28
23007 28756 28759 28
23008 28756 28760 28
23009 28761 28762 28
23010 28761 28763 28
23011 28761 28764 28
23012 28761 28765 28
23013 28766 28767 28
23014 28766 28768 28
23015 28766 28769 28
23016 28766 28770 28
23017 28771 28772 28
23018 28771 28773 28
23019 28771 28774 28
23020 28771 28775 28
23021 28776 28777 28
23022 28776 28778 28
23023 28776 28779 28
23024 28776 28780 28
23025 28781 28782 28
23026 28781 28783 28
23027 28781 28784 28
23028 28781 28785 28
23029 28786 28787 28
23030 28786 28788 28
23031 28786 28789 28
23032 28786 28790 28
23033 28791 28792 28
23034 28791 28793 28
23035 28791 28794 28
23036 28791 28795 28
23037 28796 28797 28
23038 28796 28798 28
23039 28796 28799 28
23040 28796 28800 28
23041 28801 28802 28
23042 28801 28803 28
23043 28801 28804 28
23044 28801 28805 28
23045 28806 28807 28
23046 28806 28808 28
23047 28806 28809 28
23048 28806 28810 28
23049 28811 28812 28
23050 28811 28813 28
23051 28811 28814 28
23052 28811 28815 28
23053 28816 28817 28
23054 28816 28818 28
23055 28816 28819 28
23056 28816 28820 28
23057 28821 28822 28
23058 28821 28823 28
23059 28821 28824 28
23060 28821 28825 28
23061 28826 28827 28
23062 28826 28828 28
23063 28826 28829 28
23064 28826 28830 28
23065 28831 28832 28
23066 28831 28833 28
23067 28831 28834 28
23068 28831 28835 28
23069 28836 28837 28
23070 28836 28838 28
23071 28836 28839 28
23072 28836 28840 28
23073 28841 28842 28
23074 28841 28843 28
23075 28841 28844 28
23076 28841 28845 28
23077 28846 28847 28
23078 28846 28848 28
23079 28846 28849 28
23080 28846 28850 28
23081 28851 28852 28
23082 28851 28853 28
23083 28851 28854 28
23084 28851 28855 28
23085 28856 28857 28
23086 28856 28858 28
23087 28856 28859 28
23088 28856 28860 28
23089 28861 28862 28
23090 28861 28863 28
23091 28861 28864 28
23092 28861 28865 28
23093 28866 28867 28
23094 28866 28868 28
23095 28866 28869 28
23096 28866 28870 28
23097 28871 28872 28
23098 28871 28873 28
23099 28871 28874 28
23100 28871 28875 28
23101 28876 28877 28
23102 28876 28878 28
23103 28876 28879 28
23104 28876 28880 28
23105 28881 28882 28
23106 28881 28883 28
23107 28881 28884 28
23108 28881 28885 28
23109 28886 28887 28
23110 28886 28888 28
23111 28886 28889 28
23112 28886 28890 28
23113 28891 28892 28
23114 28891 28893 28
23115 28891 28894 28
23116 28891 28895 28
23117 28896 28897 28
23118 28896 28898 28
23119 28896 28899 28
23120 28896 28900 28
23121 28901 28902 28
23122 28901 28903 28
23123 28901 28904 28
23124 28901 28905 28
23125 28906 28907 28
23126 28906 28908 28
23127 28906 28909 28
23128 28906 28910 28
23129 28911 28912 28
23130 28911 28913 28
23131 28911 28914 28
23132 28911 28915 28
23133 28916 28917 28
23134 28916 28918 28
23135 28916 28919 28
23136 28916 28920 28
23137 28921 28922 28
23138 28921 28923 28
23139 28921 28924 28
23140 28921 28925 28
23141 28926 28927 28
23142 28926 28928 28
23143 28926 28929 28
23144 28926 28930 28
23145 28931 28932 28
23146 28931 28933 28
23147 28931 28934 28
23148 28931 28935 28
23149 28936 28937 28
23150 28936 28938 28
23151 28936 28939 28
23152 28936 28940 28
23153 28941 28942 28
23154 28941 28943 28
23155 28941 28944 28
23156 28941 28945 28
23157 28946 28947 28
23158 28946 28948 28
23159 28946 28949 28
23160 28946 28950 28
23161 28951 28952 28
23162 28951 28953 28
23163 28951 28954 28
23164 28951 28955 28
23165 28956 28957 28
23166 28956 28958 28
23167 28956 28959 28
23168 28956 28960 28
23169 28961 28962 28
23170 28961 28963 28
23171 28961 28964 28
23172 28961 28965 28
23173 28966 28967 28
23174 28966 28968 28
23175 28966 28969 28
23176 28966 28970 28
23177 28971 28972 28
23178 28971 28973 28
23179 28971 28974 28
23180 28971 28975 28
23181 28976 28977 28
23182 28976 28978 28
23183 28976 28979 28
23184 28976 28980 28
23185 28981 28982 28
23186 28981 28983 28
23187 28981 28984 28
23188 28981 28985 28
23189 28986 28987 28
23190 28986 28988 28
23191 28986 28989 28
23192 28986 28990 28
23193 28991 28992 28
23194 28991 28993 28
23195 28991 28994 28
23196 28991 28995 28
23197 28996 28997 28
23198 28996 28998 28
23199 28996 28999 28
23200 28996 29000 28
23201 29001 29002 28
23202 29001 29003 28
23203 29001 29004 28
23204 29001 29005 28
23205 29006 29007 28
23206 29006 29008 28
23207 29006 29009 28
23208 29006 29010 28
23209 29011 29012 28
23210 29011 29013 28
23211 29011 29014 28
23212 29011 29015 28
23213 29016 29017 28
23214 29016 29018 28
23215 29016 29019 28
23216 29016 29020 28
23217 29021 29022 28
23218 29021 29023 28
23219 29021 29024 28
23220 29021 29025 28
23221 29026 29027 28
23222 29026 29028 28
23223 29026 29029 28
23224 29026 29030 28
23225 29031 29032 28
23226 29031 29033 28
23227 29031 29034 28
23228 29031 29035 28
23229 29036 29037 28
23230 29036 29038 28
23231 29036 29039 28
23232 29036 29040 28
23233 29041 29042 28
23234 29041 29043 28
23235 29041 29044 28
23236 29041 29045 28
23237 29046 29047 28
23238 29046 29048 28
23239 29046 29049 28
23240 29046 29050 28
23241 29051 29052 28
23242 29051 29053 28
23243 29051 29054 28
23244 29051 29055 28
23245 29056 29057 28
23246 29056 29058 28
23247 29056 29059 28
23248 29056 29060 28
23249 29061 29062 28
23250 29061 29063 28
23251 29061 29064 28
23252 29061 29065 28
23253 29066 29067 28
23254 29066 29068 28
23255 29066 29069 28
23256 29066 29070 28
23257 29071 29072 28
23258 29071 29073 28
23259 29071 29074 28
23260 29071 29075 28
23261 29076 29077 28
23262 29076 29078 28
23263 29076 29079 28
23264 29076 29080 28
23265 29081 29082 28
23266 29081 29083 28
23267 29081 29084 28
23268 29081 29085 28
23269 29086 29087 28
23270 29086 29088 28
23271 29086 29089 28
23272 29086 29090 28
23273 29091 29092 28
23274 29091 29093 28
23275 29091 29094 28
23276 29091 29095 28
23277 29096 29097 28
23278 29096 29098 28
23279 29096 29099 28
23280 29096 29100 28
23281 29101 29102 28
23282 29101 29103 28
23283 29101 29104 28
23284 29101 29105 28
23285 29106 29107 28
23286 29106 29108 28
23287 29106 29109 28
23288 29106 29110 28
23289 29111 29112 28
23290 29111 29113 28
23291 29111 29114 28
23292 29111 29115 28
23293 29116 29117 28
23294 29116 29118 28
23295 29116 29119 28
23296 29116 29120 28
23297 29121 29122 28
23298 29121 29123 28
23299 29121 29124 28
23300 29121 29125 28
23301 29126 29127 28
23302 29126 29128 28
23303 29126 29129 28
23304 29126 29130 28
23305 29131 29132 28
23306 29131 29133 28
23307 29131 29134 28
23308 29131 29135 28
23309 29136 29137 28
23310 29136 29138 28
23311 29136 29139 28
23312 29136 29140 28
23313 29141 29142 28
23314 29141 29143 28
23315 29141 29144 28
23316 29141 29145 28
23317 29146 29147 28
23318 29146 29148 28
23319 29146 29149 28
23320 29146 29150 28
23321 29151 29152 28
23322 29151 29153 28
23323 29151 29154 28
23324 29151 29155 28
23325 29156 29157 28
23326 29156 29158 28
23327 29156 29159 28
23328 29156 29160 28
23329 29161 29162 28
23330 29161 29163 28
23331 29161 29164 28
23332 29161 29165 28
23333 29166 29167 28
23334 29166 29168 28
23335 29166 29169 28
23336 29166 29170 28
23337 29171 29172 28
23338 29171 29173 28
23339 29171 29174 28
23340 29171 29175 28
23341 29176 29177 28
23342 29176 29178 28
23343 29176 29179 28
23344 29176 29180 28
23345 29181 29182 28
23346 29181 29183 28
23347 29181 29184 28
23348 29181 29185 28
23349 29186 29187 28
23350 29186 29188 28
23351 29186 29189 28
23352 29186 29190 28
23353 29191 29192 28
23354 29191 29193 28
23355 29191 29194 28
23356 29191 29195 28
23357 29196 29197 28
23358 29196 29198 28
23359 29196 29199 28
23360 29196 29200 28
23361 29201 29202 28
23362 29201 29203 28
23363 29201 29204 28
23364 29201 29205 28
23365 29206 29207 28
23366 29206 29208 28
23367 29206 29209 28
23368 29206 29210 28
23369 29211 29212 28
23370 29211 29213 28
23371 29211 29214 28
23372 29211 29215 28
23373 29216 29217 28
23374 29216 29218 28
23375 29216 29219 28
23376 29216 29220 28
23377 29221 29222 28
23378 29221 29223 28
23379 29221 29224 28
23380 29221 29225 28
23381 29226 29227 28
23382 29226 29228 28
23383 29226 29229 28
23384 29226 29230 28
23385 29231 29232 28
23386 29231 29233 28
23387 29231 29234 28
23388 29231 29235 28
23389 29236 29237 28
23390 29236 29238 28
23391 29236 29239 28
23392 29236 29240 28
23393 29241 29242 28
23394 29241 29243 28
23395 29241 29244 28
23396 29241 29245 28
23397 29246 29247 28
23398 29246 29248 28
23399 29246 29249 28
23400 29246 29250 28
23401 29251 29252 28
23402 29251 29253 28
23403 29251 29254 28
23404 29251 29255 28
23405 29256 29257 28
23406 29256 29258 28
23407 29256 29259 28
23408 29256 29260 28
23409 29261 29262 28
23410 29261 29263 28
23411 29261 29264 28
23412 29261 29265 28
23413 29266 29267 28
23414 29266 29268 28
23415 29266 29269 28
23416 29266 29270 28
23417 29271 29272 28
23418 29271 29273 28
23419 29271 29274 28
23420 29271 29275 28
23421 29276 29277 28
23422 29276 29278 28
23423 29276 29279 28
23424 29276 29280 28
23425 29281 29282 28
23426 29281 29283 28
23427 29281 29284 28
23428 29281 29285 28
23429 29286 29287 28
23430 29286 29288 28
23431 29286 29289 28
23432 29286 29290 28
23433 29291 29292 28
23434 29291 29293 28
23435 29291 29294 28
23436 29291 29295 28
23437 29296 29297 28
23438 29296 29298 28
23439 29296 29299 28
23440 29296 29300 28
23441 29301 29302 28
23442 29301 29303 28
23443 29301 29304 28
23444 29301 29305 28
23445 29306 29307 28
23446 29306 29308 28
23447 29306 29309 28
23448 29306 29310 28
23449 29311 29312 28
23450 29311 29313 28
23451 29311 29314 28
23452 29311 29315 28
23453 29316 29317 28
23454 29316 29318 28
23455 29316 29319 28
23456 29316 29320 28
23457 29321 29322 28
23458 29321 29323 28
23459 29321 29324 28
23460 29321 29325 28
23461 29326 29327 28
23462 29326 29328 28
23463 29326 29329 28
23464 29326 29330 28
23465 29331 29332 28
23466 29331 29333 28
23467 29331 29334 28
23468 29331 29335 28
23469 29336 29337 28
23470 29336 29338 28
23471 29336 29339 28
23472 29336 29340 28
23473 29341 29342 28
23474 29341 29343 28
23475 29341 29344 28
23476 29341 29345 28
23477 29346 29347 28
23478 29346 29348 28
23479 29346 29349 28
23480 29346 29350 28
23481 29351 29352 28
23482 29351 29353 28
23483 29351 29354 28
23484 29351 29355 28
23485 29356 29357 28
23486 29356 29358 28
23487 29356 29359 28
23488 29356 29360 28
23489 29361 29362 28
23490 29361 29363 28
23491 29361 29364 28
23492 29361 29365 28
23493 29366 29367 28
23494 29366 29368 28
23495 29366 29369 28
23496 29366 29370 28
23497 29371 29372 28
23498 29371 29373 28
23499 29371 29374 28
23500 29371 29375 28
23501 29376 29377 28
23502 29376 29378 28
23503 29376 29379 28
23504 29376 29380 28
23505 29381 29382 28
23506 29381 29383 28
23507 29381 29384 28
23508 29381 29385 28
23509 29386 29387 28
23510 29386 29388 28
23511 29386 29389 28
23512 29386 29390 28
23513 29391 29392 28
23514 29391 29393 28
23515 29391 29394 28
23516 29391 29395 28
23517 29396 29397 28
23518 29396 29398 28
23519 29396 29399 28
23520 29396 29400 28
23521 29401 29402 28
23522 29401 29403 28
23523 29401 29404 28
23524 29401 29405 28
23525 29406 29407 28
23526 29406 29408 28
23527 29406 29409 28
23528 29406 29410 28
23529 29411 29412 28
23530 29411 29413 28
23531 29411 29414 28
23532 29411 29415 28
23533 29416 29417 28
23534 29416 29418 28
23535 29416 29419 28
23536 29416 29420 28
23537 29421 29422 28
23538 29421 29423 28
23539 29421 29424 28
23540 29421 29425 28
23541 29426 29427 28
23542 29426 29428 28
23543 29426 29429 28
23544 29426 29430 28
23545 29431 29432 28
23546 29431 29433 28
23547 29431 29434 28
23548 29431 29435 28
23549 29436 29437 28
23550 29436 29438 28
23551 29436 29439 28
23552 29436 29440 28
23553 29441 29442 28
23554 29441 29443 28
23555 29441 29444 28
23556 29441 29445 28
23557 29446 29447 28
23558 29446 29448 28
23559 29446 29449 28
23560 29446 29450 28
23561 29451 29452 28
23562 29451 29453 28
23563 29451 29454 28
23564 29451 29455 28
23565 29456 29457 28
23566 29456 29458 28
23567 29456 29459 28
23568 29456 29460 28
23569 29461 29462 28
23570 29461 29463 28
23571 29461 29464 28
23572 29461 29465 28
23573 29466 29467 28
23574 29466 29468 28
23575 29466 29469 28
23576 29466 29470 28
23577 29471 29472 28
23578 29471 29473 28
23579 29471 29474 28
23580 29471 29475 28
23581 29476 29477 28
23582 29476 29478 28
23583 29476 29479 28
23584 29476 29480 28
23585 29481 29482 28
23586 29481 29483 28
23587 29481 29484 28
23588 29481 29485 28
23589 29486 29487 28
23590 29486 29488 28
23591 29486 29489 28
23592 29486 29490 28
23593 29491 29492 28
23594 29491 29493 28
23595 29491 29494 28
23596 29491 29495 28
23597 29496 29497 28
23598 29496 29498 28
23599 29496 29499 28
23600 29496 29500 28
23601 29501 29502 28
23602 29501 29503 28
23603 29501 29504 28
23604 29501 29505 28
23605 29506 29507 28
23606 29506 29508 28
23607 29506 29509 28
23608 29506 29510 28
23609 29511 29512 28
23610 29511 29513 28
23611 29511 29514 28
23612 29511 29515 28
23613 29516 29517 28
23614 29516 29518 28
23615 29516 29519 28
23616 29516 29520 28
23617 29521 29522 28
23618 29521 29523 28
23619 29521 29524 28
23620 29521 29525 28
23621 29526 29527 28
23622 29526 29528 28
23623 29526 29529 28
23624 29526 29530 28
23625 29531 29532 28
23626 29531 29533 28
23627 29531 29534 28
23628 29531 29535 28
23629 29536 29537 28
23630 29536 29538 28
23631 29536 29539 28
23632 29536 29540 28
23633 29541 29542 28
23634 29541 29543 28
23635 29541 29544 28
23636 29541 29545 28
23637 29546 29547 28
23638 29546 29548 28
23639 29546 29549 28
23640 29546 29550 28
23641 29551 29552 28
23642 29551 29553 28
23643 29551 29554 28
23644 29551 29555 28
23645 29556 29557 28
23646 29556 29558 28
23647 29556 29559 28
23648 29556 29560 28
23649 29561 29562 28
23650 29561 29563 28
23651 29561 29564 28
23652 29561 29565 28
23653 29566 29567 28
23654 29566 29568 28
23655 29566 29569 28
23656 29566 29570 28
23657 29571 29572 28
23658 29571 29573 28
23659 29571 29574 28
23660 29571 29575 28
23661 29576 29577 28
23662 29576 29578 28
23663 29576 29579 28
23664 29576 29580 28
23665 29581 29582 28
23666 29581 29583 28
23667 29581 29584 28
23668 29581 29585 28
23669 29586 29587 28
23670 29586 29588 28
23671 29586 29589 28
23672 29586 29590 28
23673 29591 29592 28
23674 29591 29593 28
23675 29591 29594 28
23676 29591 29595 28
23677 29596 29597 28
23678 29596 29598 28
23679 29596 29599 28
23680 29596 29600 28
23681 29601 29602 28
23682 29601 29603 28
23683 29601 29604 28
23684 29601 29605 28
23685 29606 29607 28
23686 29606 29608 28
23687 29606 29609 28
23688 29606 29610 28
23689 29611 29612 28
23690 29611 29613 28
23691 29611 29614 28
23692 29611 29615 28
23693 29616 29617 28
23694 29616 29618 28
23695 29616 29619 28
23696 29616 29620 28
23697 29621 29622 28
23698 29621 29623 28
23699 29621 29624 28
23700 29621 29625 28
23701 29626 29627 28
23702 29626 29628 28
23703 29626 29629 28
23704 29626 29630 28
23705 29631 29632 28
23706 29631 29633 28
23707 29631 29634 28
23708 29631 29635 28
23709 29636 29637 28
23710 29636 29638 28
23711 29636 29639 28
23712 29636 29640 28
23713 29641 29642 28
23714 29641 29643 28
23715 29641 29644 28
23716 29641 29645 28
23717 29646 29647 28
23718 29646 29648 28
23719 29646 29649 28
23720 29646 29650 28
23721 29651 29652 28
23722 29651 29653 28
23723 29651 29654 28
23724 29651 29655 28
23725 29656 29657 28
23726 29656 29658 28
23727 29656 29659 28
23728 29656 29660 28
23729 29661 29662 28
23730 29661 29663 28
23731 29661 29664 28
23732 29661 29665 28
23733 29666 29667 28
23734 29666 29668 28
23735 29666 29669 28
23736 29666 29670 28
23737 29671 29672 28
23738 29671 29673 28
23739 29671 29674 28
23740 29671 29675 28
23741 29676 29677 28
23742 29676 29678 28
23743 29676 29679 28
23744 29676 29680 28
23745 29681 29682 28
23746 29681 29683 28
23747 29681 29684 28
23748 29681 29685 28
23749 29686 29687 28
23750 29686 29688 28
23751 29686 29689 28
23752 29686 29690 28
23753 29691 29692 28
23754 29691 29693 28
23755 29691 29694 28
23756 29691 29695 28
23757 29696 29697 28
23758 29696 29698 28
23759 29696 29699 28
23760 29696 29700 28
23761 29701 29702 28
23762 29701 29703 28
23763 29701 29704 28
23764 29701 29705 28
23765 29706 29707 28
23766 29706 29708 28
23767 29706 29709 28
23768 29706 29710 28
23769 29711 29712 28
23770 29711 29713 28
23771 29711 29714 28
23772 29711 29715 28
23773 29716 29717 28
23774 29716 29718 28
23775 29716 29719 28
23776 29716 29720 28
23777 29721 29722 28
23778 29721 29723 28
23779 29721 29724 28
23780 29721 29725 28
23781 29726 29727 28
23782 29726 29728 28
23783 29726 29729 28
23784 29726 29730 28
23785 29731 29732 28
23786 29731 29733 28
23787 29731 29734 28
23788 29731 29735 28
23789 29736 29737 28
23790 29736 29738 28
23791 29736 29739 28
23792 29736 29740 28
23793 29741 29742 28
23794 29741 29743 28
23795 29741 29744 28
23796 29741 29745 28
23797 29746 29747 28
23798 29746 29748 28
23799 29746 29749 28
23800 29746 29750 28
23801 29751 29752 28
23802 29751 29753 28
23803 29751 29754 28
23804 29751 29755 28
23805 29756 29757 28
23806 29756 29758 28
23807 29756 29759 28
23808 29756 29760 28
23809 29761 29762 28
23810 29761 29763 28
23811 29761 29764 28
23812 29761 29765 28
23813 29766 29767 28
23814 29766 29768 28
23815 29766 29769 28
23816 29766 29770 28
23817 29771 29772 28
23818 29771 29773 28
23819 29771 29774 28
23820 29771 29775 28
23821 29776 29777 28
23822 29776 29778 28
23823 29776 29779 28
23824 29776 29780 28
23825 29781 29782 28
23826 29781 29783 28
23827 29781 29784 28
23828 29781 29785 28
23829 29786 29787 28
23830 29786 29788 28
23831 29786 29789 28
23832 29786 29790 28
23833 29791 29792 28
23834 29791 29793 28
23835 29791 29794 28
23836 29791 29795 28
23837 29796 29797 28
23838 29796 29798 28
23839 29796 29799 28
23840 29796 29800 28
23841 29801 29802 28
23842 29801 29803 28
23843 29801 29804 28
23844 29801 29805 28
23845 29806 29807 28
23846 29806 29808 28
23847 29806 29809 28
23848 29806 29810 28
23849 29811 29812 28
23850 29811 29813 28
23851 29811 29814 28
23852 29811 29815 28
23853 29816 29817 28
23854 29816 29818 28
23855 29816 29819 28
23856 29816 29820 28
23857 29821 29822 28
23858 29821 29823 28
23859 29821 29824 28
23860 29821 29825 28
23861 29826 29827 28
23862 29826 29828 28
23863 29826 29829 28
23864 29826 29830 28
23865 29831 29832 28
23866 29831 29833 28
23867 29831 29834 28
23868 29831 29835 28
23869 29836 29837 28
23870 29836 29838 28
23871 29836 29839 28
23872 29836 29840 28
23873 29841 29842 28
23874 29841 29843 28
23875 29841 29844 28
23876 29841 29845 28
23877 29846 29847 28
23878 29846 29848 28
23879 29846 29849 28
23880 29846 29850 28
23881 29851 29852 28
23882 29851 29853 28
23883 29851 29854 28
23884 29851 29855 28
23885 29856 29857 28
23886 29856 29858 28
23887 29856 29859 28
23888 29856 29860 28
23889 29861 29862 28
23890 29861 29863 28
23891 29861 29864 28
23892 29861 29865 28
23893 29866 29867 28
23894 29866 29868 28
23895 29866 29869 28
23896 29866 29870 28
23897 29871 29872 28
23898 29871 29873 28
23899 29871 29874 28
23900 29871 29875 28
23901 29876 29877 28
23902 29876 29878 28
23903 29876 29879 28
23904 29876 29880 28
23905 29881 29882 28
23906 29881 29883 28
23907 29881 29884 28
23908 29881 29885 28
23909 29886 29887 28
23910 29886 29888 28
23911 29886 29889 28
23912 29886 29890 28
23913 29891 29892 28
23914 29891 29893 28
23915 29891 29894 28
23916 29891 29895 28
23917 29896 29897 28
23918 29896 29898 28
23919 29896 29899 28
23920 29896 29900 28
23921 29901 29902 28
23922 29901 29903 28
23923 29901 29904 28
23924 29901 29905 28
23925 29906 29907 28
23926 29906 29908 28
23927 29906 29909 28
23928 29906 29910 28
23929 29911 29912 28
23930 29911 29913 28
23931 29911 29914 28
23932 29911 29915 28
23933 29916 29917 28
23934 29916 29918 28
23935 29916 29919 28
23936 29916 29920 28
23937 29921 29922 28
23938 29921 29923 28
23939 29921 29924 28
23940 29921 29925 28
23941 29926 29927 28
23942 29926 29928 28
23943 29926 29929 28
23944 29926 29930 28
23945 29931 29932 28
23946 29931 29933 28
23947 29931 29934 28
23948 29931 29935 28
23949 29936 29937 28
23950 29936 29938 28
23951 29936 29939 28
23952 29936 29940 28
23953 29941 29942 28
23954 29941 29943 28
23955 29941 29944 28
23956 29941 29945 28
23957 29946 29947 28
23958 29946 29948 28
23959 29946 29949 28
23960 29946 29950 28
23961 29951 29952 28
23962 29951 29953 28
23963 29951 29954 28
23964 29951 29955 28
23965 29956 29957 28
23966 29956 29958 28
23967 29956 29959 28
23968 29956 29960 28
23969 29961 29962 28
23970 29961 29963 28
23971 29961 29964 28
23972 29961 29965 28
23973 29966 29967 28
23974 29966 29968 28
23975 29966 29969 28
23976 29966 29970 28
23977 29971 29972 28
23978 29971 29973 28
23979 29971 29974 28
23980 29971 29975 28
23981 29976 29977 28
23982 29976 29978 28
23983 29976 29979 28
23984 29976 29980 28
23985 29981 29982 28
23986 29981 29983 28
23987 29981 29984 28
23988 29981 29985 28
23989 29986 29987 28
23990 29986 29988 28
23991 29986 29989 28
23992 29986 29990 28
23993 29991 29992 28
23994 29991 29993 28
23995 29991 29994 28
23996 29991 29995 28
23997 29996 29997 28
23998 29996 29998 28
23999 29996 29999 28
24000 29996 30000 28
24001 30001 30002 28
24002 30001 30003 28
24003 30001 30004 28
24004 30001 30005 28
24005 30006 30007 28
24006 30006 30008 28
24007 30006 30009 28
24008 30006 30010 28
24009 30011 30012 28
24010 30011 30013 28
24011 30011 30014 28
24012 30011 30015 28
24013 30016 30017 28
24014 30016 30018 28
24015 30016 30019 28
24016 30016 30020 28
24017 30021 30022 28
24018 30021 30023 28
24019 30021 30024 28
24020 30021 30025 28
24021 30026 30027 28
24022 30026 30028 28
24023 30026 30029 28
24024 30026 30030 28
24025 30031 30032 28
24026 30031 30033 28
24027 30031 30034 28
24028 30031 30035 28
24029 30036 30037 28
24030 30036 30038 28
24031 30036 30039 28
24032 30036 30040 28
24033 30041 30042 28
24034 30041 30043 28
24035 30041 30044 28
24036 30041 30045 28
24037 30046 30047 28
24038 30046 30048 28
24039 30046 30049 28
24040 30046 30050 28
24041 30051 30052 28
24042 30051 30053 28
24043 30051 30054 28
24044 30051 30055 28
24045 30056 30057 28
24046 30056 30058 28
24047 30056 30059 28
24048 30056 30060 28
24049 30061 30062 28
24050 30061 30063 28
24051 30061 30064 28
24052 30061 30065 28
24053 30066 30067 28
24054 30066 30068 28
24055 30066 30069 28
24056 30066 30070 28
24057 30071 30072 28
24058 30071 30073 28
24059 30071 30074 28
24060 30071 30075 28
24061 30076 30077 28
24062 30076 30078 28
24063 30076 30079 28
24064 30076 30080 28
24065 30081 30082 28
24066 30081 30083 28
24067 30081 30084 28
24068 30081 30085 28
24069 30086 30087 28
24070 30086 30088 28
24071 30086 30089 28
24072 30086 30090 28
24073 30091 30092 28
24074 30091 30093 28
24075 30091 30094 28
24076 30091 30095 28
24077 30096 30097 28
24078 30096 30098 28
24079 30096 30099 28
24080 30096 30100 28
24081 30101 30102 28
24082 30101 30103 28
24083 30101 30104 28
24084 30101 30105 28
24085 30106 30107 28
24086 30106 30108 28
24087 30106 30109 28
24088 30106 30110 28
24089 30111 30112 28
24090 30111 30113 28
24091 30111 30114 28
24092 30111 30115 28
24093 30116 30117 28
24094 30116 30118 28
24095 30116 30119 28
24096 30116 30120 28
24097 30121 30122 28
24098 30121 30123 28
24099 30121 30124 28
24100 30121 30125 28
24101 30126 30127 28
24102 30126 30128 28
24103 30126 30129 28
24104 30126 30130 28
24105 30131 30132 28
24106 30131 30133 28
24107 30131 30134 28
24108 30131 30135 28
24109 30136 30137 28
24110 30136 30138 28
24111 30136 30139 28
24112 30136 30140 28
24113 30141 30142 28
24114 30141 30143 28
24115 30141 30144 28
24116 30141 30145 28
24117 30146 30147 28
24118 30146 30148 28
24119 30146 30149 28
24120 30146 30150 28
24121 30151 30152 28
24122 30151 30153 28
24123 30151 30154 28
24124 30151 30155 28
24125 30156 30157 28
24126 30156 30158 28
24127 30156 30159 28
24128 30156 30160 28
24129 30161 30162 28
24130 30161 30163 28
24131 30161 30164 28
24132 30161 30165 28
24133 30166 30167 28
24134 30166 30168 28
24135 30166 30169 28
24136 30166 30170 28
24137 30171 30172 28
24138 30171 30173 28
24139 30171 30174 28
24140 30171 30175 28
24141 30176 30177 28
24142 30176 30178 28
24143 30176 30179 28
24144 30176 30180 28
24145 30181 30182 28
24146 30181 30183 28
24147 30181 30184 28
24148 30181 30185 28
24149 30186 30187 28
24150 30186 30188 28
24151 30186 30189 28
24152 30186 30190 28
24153 30191 30192 28
24154 30191 30193 28
24155 30191 30194 28
24156 30191 30195 28
24157 30196 30197 28
24158 30196 30198 28
24159 30196 30199 28
24160 30196 30200 28
24161 30201 30202 28
24162 30201 30203 28
24163 30201 30204 28
24164 30201 30205 28
24165 30206 30207 28
24166 30206 30208 28
24167 30206 30209 28
24168 30206 30210 28
24169 30211 30212 28
24170 30211 30213 28
24171 30211 30214 28
24172 30211 30215 28
24173 30216 30217 28
24174 30216 30218 28
24175 30216 30219 28
24176 30216 30220 28
24177 30221 30222 28
24178 30221 30223 28
24179 30221 30224 28
24180 30221 30225 28
24181 30226 30227 28
24182 30226 30228 28
24183 30226 30229 28
24184 30226 30230 28
24185 30231 30232 28
24186 30231 30233 28
24187 30231 30234 28
24188 30231 30235 28
24189 30236 30237 28
24190 30236 30238 28
24191 30236 30239 28
24192 30236 30240 28
24193 30241 30242 28
24194 30241 30243 28
24195 30241 30244 28
24196 30241 30245 28
24197 30246 30247 28
24198 30246 30248 28
24199 30246 30249 28
24200 30246 30250 28
24201 30251 30252 28
24202 30251 30253 28
24203 30251 30254 28
24204 30251 30255 28
24205 30256 30257 28
24206 30256 30258 28
24207 30256 30259 28
24208 30256 30260 28
24209 30261 30262 28
24210 30261 30263 28
24211 30261 30264 28
24212 30261 30265 28
24213 30266 30267 28
24214 30266 30268 28
24215 30266 30269 28
24216 30266 30270 28
24217 30271 30272 28
24218 30271 30273 28
24219 30271 30274 28
24220 30271 30275 28
24221 30276 30277 28
24222 30276 30278 28
24223 30276 30279 28
24224 30276 30280 28
24225 30281 30282 28
24226 30281 30283 28
24227 30281 30284 28
24228 30281 30285 28
24229 30286 30287 28
24230 30286 30288 28
24231 30286 30289 28
24232 30286 30290 28
24233 30291 30292 28
24234 30291 30293 28
24235 30291 30294 28
24236 30291 30295 28
24237 30296 30297 28
24238 30296 30298 28
24239 30296 30299 28
24240 30296 30300 28
24241 30301 30302 28
24242 30301 30303 28
24243 30301 30304 28
24244 30301 30305 28
24245 30306 30307 28
24246 30306 30308 28
24247 30306 30309 28
24248 30306 30310 28
24249 30311 30312 28
24250 30311 30313 28
24251 30311 30314 28
24252 30311 30315 28
24253 30316 30317 28
24254 30316 30318 28
24255 30316 30319 28
24256 30316 30320 28
24257 30321 30322 28
24258 30321 30323 28
24259 30321 30324 28
24260 30321 30325 28
24261 30326 30327 28
24262 30326 30328 28
24263 30326 30329 28
24264 30326 30330 28
24265 30331 30332 28
24266 30331 30333 28
24267 30331 30334 28
24268 30331 30335 28
24269 30336 30337 28
24270 30336 30338 28
24271 30336 30339 28
24272 30336 30340 28
24273 30341 30342 28
24274 30341 30343 28
24275 30341 30344 28
24276 30341 30345 28
24277 30346 30347 28
24278 30346 30348 28
24279 30346 30349 28
24280 30346 30350 28
24281 30351 30352 28
24282 30351 30353 28
24283 30351 30354 28
24284 30351 30355 28
24285 30356 30357 28
24286 30356 30358 28
24287 30356 30359 28
24288 30356 30360 28
24289 30361 30362 28
24290 30361 30363 28
24291 30361 30364 28
24292 30361 30365 28
24293 30366 30367 28
24294 30366 30368 28
24295 30366 30369 28
24296 30366 30370 28
24297 30371 30372 28
24298 30371 30373 28
24299 30371 30374 28
24300 30371 30375 28
24301 30376 30377 28
24302 30376 30378 28
24303 30376 30379 28
24304 30376 30380 28
24305 30381 30382 28
24306 30381 30383 28
24307 30381 30384 28
24308 30381 30385 28
24309 30386 30387 28
24310 30386 30388 28
24311 30386 30389 28
24312 30386 30390 28
24313 30391 30392 28
24314 30391 30393 28
24315 30391 30394 28
24316 30391 30395 28
24317 30396 30397 28
24318 30396 30398 28
24319 30396 30399 28
24320 30396 30400 28
24321 30401 30402 28
24322 30401 30403 28
24323 30401 30404 28
24324 30401 30405 28
24325 30406 30407 28
24326 30406 30408 28
24327 30406 30409 28
24328 30406 30410 28
24329 30411 30412 28
24330 30411 30413 28
24331 30411 30414 28
24332 30411 30415 28
24333 30416 30417 28
24334 30416 30418 28
24335 30416 30419 28
24336 30416 30420 28
24337 30421 30422 28
24338 30421 30423 28
24339 30421 30424 28
24340 30421 30425 28
24341 30426 30427 28
24342 30426 30428 28
24343 30426 30429 28
24344 30426 30430 28
24345 30431 30432 28
24346 30431 30433 28
24347 30431 30434 28
24348 30431 30435 28
24349 30436 30437 28
24350 30436 30438 28
24351 30436 30439 28
24352 30436 30440 28
24353 30441 30442 28
24354 30441 30443 28
24355 30441 30444 28
24356 30441 30445 28
24357 30446 30447 28
24358 30446 30448 28
24359 30446 30449 28
24360 30446 30450 28
24361 30451 30452 28
24362 30451 30453 28
24363 30451 30454 28
24364 30451 30455 28
24365 30456 30457 28
24366 30456 30458 28
24367 30456 30459 28
24368 30456 30460 28
24369 30461 30462 28
24370 30461 30463 28
24371 30461 30464 28
24372 30461 30465 28
24373 30466 30467 28
24374 30466 30468 28
24375 30466 30469 28
24376 30466 30470 28
24377 30471 30472 28
24378 30471 30473 28
24379 30471 30474 28
24380 30471 30475 28
24381 30476 30477 28
24382 30476 30478 28
24383 30476 30479 28
24384 30476 30480 28
24385 30481 30482 28
24386 30481 30483 28
24387 30481 30484 28
24388 30481 30485 28
24389 30486 30487 28
24390 30486 30488 28
24391 30486 30489 28
24392 30486 30490 28
24393 30491 30492 28
24394 30491 30493 28
24395 30491 30494 28
24396 30491 30495 28
24397 30496 30497 28
24398 30496 30498 28
24399 30496 30499 28
24400 30496 30500 28
24401 30501 30502 28
24402 30501 30503 28
24403 30501 30504 28
24404 30501 30505 28
24405 30506 30507 28
24406 30506 30508 28
24407 30506 30509 28
24408 30506 30510 28
24409 30511 30512 28
24410 30511 30513 28
24411 30511 30514 28
24412 30511 30515 28
24413 30516 30517 28
24414 30516 30518 28
24415 30516 30519 28
24416 30516 30520 28
24417 30521 30522 28
24418 30521 30523 28
24419 30521 30524 28
24420 30521 30525 28
24421 30526 30527 28
24422 30526 30528 28
24423 30526 30529 28
24424 30526 30530 28
24425 30531 30532 28
24426 30531 30533 28
24427 30531 30534 28
24428 30531 30535 28
24429 30536 30537 28
24430 30536 30538 28
24431 30536 30539 28
24432 30536 30540 28
24433 30541 30542 28
24434 30541 30543 28
24435 30541 30544 28
24436 30541 30545 28
24437 30546 30547 28
24438 30546 30548 28
24439 30546 30549 28
24440 30546 30550 28
24441 30551 30552 28
24442 30551 30553 28
24443 30551 30554 28
24444 30551 30555 28
24445 30556 30557 28
24446 30556 30558 28
24447 30556 30559 28
24448 30556 30560 28
24449 30561 30562 28
24450 30561 30563 28
24451 30561 30564 28
24452 30561 30565 28
24453 30566 30567 28
24454 30566 30568 28
24455 30566 30569 28
24456 30566 30570 28
24457 30571 30572 28
24458 30571 30573 28
24459 30571 30574 28
24460 30571 30575 28
24461 30576 30577 28
24462 30576 30578 28
24463 30576 30579 28
24464 30576 30580 28
24465 30581 30582 28
24466 30581 30583 28
24467 30581 30584 28
24468 30581 30585 28
24469 30586 30587 28
24470 30586 30588 28
24471 30586 30589 28
24472 30586 30590 28
24473 30591 30592 28
24474 30591 30593 28
24475 30591 30594 28
24476 30591 30595 28
24477 30596 30597 28
24478 30596 30598 28
24479 30596 30599 28
24480 30596 30600 28
24481 30601 30602 28
24482 30601 30603 28
24483 30601 30604 28
24484 30601 30605 28
24485 30606 30607 28
24486 30606 30608 28
24487 30606 30609 28
24488 30606 30610 28
24489 30611 30612 28
24490 30611 30613 28
24491 30611 30614 28
24492 30611 30615 28
24493 30616 30617 28
24494 30616 30618 28
24495 30616 30619 28
24496 30616 30620 28
24497 30621 30622 28
24498 30621 30623 28
24499 30621 30624 28
24500 30621 30625 28
24501 30626 30627 28
24502 30626 30628 28
24503 30626 30629 28
24504 30626 30630 28
24505 30631 30632 28
24506 30631 30633 28
24507 30631 30634 28
24508 30631 30635 28
24509 30636 30637 28
24510 30636 30638 28
24511 30636 30639 28
24512 30636 30640 28
24513 30641 30642 28
24514 30641 30643 28
24515 30641 30644 28
24516 30641 30645 28
24517 30646 30647 28
24518 30646 30648 28
24519 30646 30649 28
24520 30646 30650 28
24521 30651 30652 28
24522 30651 30653 28
24523 30651 30654 28
24524 30651 30655 28
24525 30656 30657 28
24526 30656 30658 28
24527 30656 30659 28
24528 30656 30660 28
24529 30661 30662 28
24530 30661 30663 28
24531 30661 30664 28
24532 30661 30665 28
24533 30666 30667 28
24534 30666 30668 28
24535 30666 30669 28
24536 30666 30670 28
24537 30671 30672 28
24538 30671 30673 28
24539 30671 30674 28
24540 30671 30675 28
24541 30676 30677 28
24542 30676 30678 28
24543 30676 30679 28
24544 30676 30680 28
24545 30681 30682 28
24546 30681 30683 28
24547 30681 30684 28
24548 30681 30685 28
24549 30686 30687 28
24550 30686 30688 28
24551 30686 30689 28
24552 30686 30690 28
24553 30691 30692 28
24554 30691 30693 28
24555 30691 30694 28
24556 30691 30695 28
24557 30696 30697 28
24558 30696 30698 28
24559 30696 30699 28
24560 30696 30700 28
24561 30701 30702 28
24562 30701 30703 28
24563 30701 30704 28
24564 30701 30705 28
24565 30706 30707 28
24566 30706 30708 28
24567 30706 30709 28
24568 30706 30710 28
24569 30711 30712 28
24570 30711 30713 28
24571 30711 30714 28
24572 30711 30715 28
24573 30716 30717 28
24574 30716 30718 28
24575 30716 30719 28
24576 30716 30720 28
24577 30721 30722 28
24578 30721 30723 28
24579 30721 30724 28
24580 30721 30725 28
24581 30726 30727 28
24582 30726 30728 28
24583 30726 30729 28
24584 30726 30730 28
24585 30731 30732 28
24586 30731 30733 28
24587 30731 30734 28
24588 30731 30735 28
24589 30736 30737 28
24590 30736 30738 28
24591 30736 30739 28
24592 30736 30740 28
24593 30741 30742 28
24594 30741 30743 28
24595 30741 30744 28
24596 30741 30745 28
24597 30746 30747 28
24598 30746 30748 28
24599 30746 30749 28
24600 30746 30750 28
24601 30751 30752 28
24602 30751 30753 28
24603 30751 30754 28
24604 30751 30755 28
24605 30756 30757 28
24606 30756 30758 28
24607 30756 30759 28
24608 30756 30760 28
24609 30761 30762 28
24610 30761 30763 28
24611 30761 30764 28
24612 30761 30765 28
24613 30766 30767 28
24614 30766 30768 28
24615 30766 30769 28
24616 30766 30770 28
24617 30771 30772 28
24618 30771 30773 28
24619 30771 30774 28
24620 30771 30775 28
24621 30776 30777 28
24622 30776 30778 28
24623 30776 30779 28
24624 30776 30780 28
24625 30781 30782 28
24626 30781 30783 28
24627 30781 30784 28
24628 30781 30785 28
24629 30786 30787 28
24630 30786 30788 28
24631 30786 30789 28
24632 30786 30790 28
24633 30791 30792 28
24634 30791 30793 28
24635 30791 30794 28
24636 30791 30795 28
24637 30796 30797 28
24638 30796 30798 28
24639 30796 30799 28
24640 30796 30800 28
24641 30801 30802 28
24642 30801 30803 28
24643 30801 30804 28
24644 30801 30805 28
24645 30806 30807 28
24646 30806 30808 28
24647 30806 30809 28
24648 30806 30810 28
24649 30811 30812 28
24650 30811 30813 28
24651 30811 30814 28
24652 30811 30815 28
24653 30816 30817 28
24654 30816 30818 28
24655 30816 30819 28
24656 30816 30820 28
24657 30821 30822 28
24658 30821 30823 28
24659 30821 30824 28
24660 30821 30825 28
24661 30826 30827 28
24662 30826 30828 28
24663 30826 30829 28
24664 30826 30830 28
24665 30831 30832 28
24666 30831 30833 28
24667 30831 30834 28
24668 30831 30835 28
24669 30836 30837 28
24670 30836 30838 28
24671 30836 30839 28
24672 30836 30840 28
24673 30841 30842 28
24674 30841 30843 28
24675 30841 30844 28
24676 30841 30845 28
24677 30846 30847 28
24678 30846 30848 28
24679 30846 30849 28
24680 30846 30850 28
24681 30851 30852 28
24682 30851 30853 28
24683 30851 30854 28
24684 30851 30855 28
24685 30856 30857 28
24686 30856 30858 28
24687 30856 30859 28
24688 30856 30860 28
24689 30861 30862 28
24690 30861 30863 28
24691 30861 30864 28
24692 30861 30865 28
24693 30866 30867 28
24694 30866 30868 28
24695 30866 30869 28
24696 30866 30870 28
24697 30871 30872 28
24698 30871 30873 28
24699 30871 30874 28
24700 30871 30875 28
24701 30876 30877 28
24702 30876 30878 28
24703 30876 30879 28
24704 30876 30880 28
24705 30881 30882 28
24706 30881 30883 28
24707 30881 30884 28
24708 30881 30885 28
24709 30886 30887 28
24710 30886 30888 28
24711 30886 30889 28
24712 30886 30890 28
24713 30891 30892 28
24714 30891 30893 28
24715 30891 30894 28
24716 30891 30895 28
24717 30896 30897 28
24718 30896 30898 28
24719 30896 30899 28
24720 30896 30900 28
24721 30901 30902 28
24722 30901 30903 28
24723 30901 30904 28
24724 30901 30905 28
24725 30906 30907 28
24726 30906 30908 28
24727 30906 30909 28
24728 30906 30910 28
24729 30911 30912 28
24730 30911 30913 28
24731 30911 30914 28
24732 30911 30915 28
24733 30916 30917 28
24734 30916 30918 28
24735 30916 30919 28
24736 30916 30920 28
24737 30921 30922 28
24738 30921 30923 28
24739 30921 30924 28
24740 30921 30925 28
24741 30926 30927 28
24742 30926 30928 28
24743 30926 30929 28
24744 30926 30930 28
24745 30931 30932 28
24746 30931 30933 28
24747 30931 30934 28
24748 30931 30935 28
24749 30936 30937 28
24750 30936 30938 28
24751 30936 30939 28
24752 30936 30940 28
24753 30941 30942 28
24754 30941 30943 28
24755 30941 30944 28
24756 30941 30945 28
24757 30946 30947 28
24758 30946 30948 28
24759 30946 30949 28
24760 30946 30950 28
24761 30951 30952 28
24762 30951 30953 28
24763 30951 30954 28
24764 30951 30955 28
24765 30956 30957 28
24766 30956 30958 28
24767 30956 30959 28
24768 30956 30960 28
24769 30961 30962 28
24770 30961 30963 28
24771 30961 30964 28
24772 30961 30965 28
24773 30966 30967 28
24774 30966 30968 28
24775 30966 30969 28
24776 30966 30970 28
24777 30971 30972 28
24778 30971 30973 28
24779 30971 30974 28
24780 30971 30975 28
24781 30976 30977 28
24782 30976 30978 28
24783 30976 30979 28
24784 30976 30980 28
24785 30981 30982 28
24786 30981 30983 28
24787 30981 30984 28
24788 30981 30985 28
24789 30986 30987 28
24790 30986 30988 28
24791 30986 30989 28
24792 30986 30990 28
24793 30991 30992 28
24794 30991 30993 28
24795 30991 30994 28
24796 30991 30995 28
24797 30996 30997 28
24798 30996 30998 28
24799 30996 30999 28
24800 30996 31000 28
24801 31001 31002 28
24802 31001 31003 28
24803 31001 31004 28
24804 31001 31005 28
24805 31006 31007 28
24806 31006 31008 28
24807 31006 31009 28
24808 31006 31010 28
24809 31011 31012 28
24810 31011 31013 28
24811 31011 31014 28
24812 31011 31015 28
24813 31016 31017 28
24814 31016 31018 28
24815 31016 31019 28
24816 31016 31020 28
24817 31021 31022 28
24818 31021 31023 28
24819 31021 31024 28
24820 31021 31025 28
24821 31026 31027 28
24822 31026 31028 28
24823 31026 31029 28
24824 31026 31030 28
24825 31031 31032 28
24826 31031 31033 28
24827 31031 31034 28
24828 31031 31035 28
24829 31036 31037 28
24830 31036 31038 28
24831 31036 31039 28
24832 31036 31040 28
24833 31041 31042 28
24834 31041 31043 28
24835 31041 31044 28
24836 31041 31045 28
24837 31046 31047 28
24838 31046 31048 28
24839 31046 31049 28
24840 31046 31050 28
24841 31051 31052 28
24842 31051 31053 28
24843 31051 31054 28
24844 31051 31055 28
24845 31056 31057 28
24846 31056 31058 28
24847 31056 31059 28
24848 31056 31060 28
24849 31061 31062 28
24850 31061 31063 28
24851 31061 31064 28
24852 31061 31065 28
24853 31066 31067 28
24854 31066 31068 28
24855 31066 31069 28
24856 31066 31070 28
24857 31071 31072 28
24858 31071 31073 28
24859 31071 31074 28
24860 31071 31075 28
24861 31076 31077 28
24862 31076 31078 28
24863 31076 31079 28
24864 31076 31080 28
24865 31081 31082 28
24866 31081 31083 28
24867 31081 31084 28
24868 31081 31085 28
24869 31086 31087 28
24870 31086 31088 28
24871 31086 31089 28
24872 31086 31090 28
24873 31091 31092 28
24874 31091 31093 28
24875 31091 31094 28
24876 31091 31095 28
24877 31096 31097 28
24878 31096 31098 28
24879 31096 31099 28
24880 31096 31100 28
24881 31101 31102 28
24882 31101 31103 28
24883 31101 31104 28
24884 31101 31105 28
24885 31106 31107 28
24886 31106 31108 28
24887 31106 31109 28
24888 31106 31110 28
24889 31111 31112 28
24890 31111 31113 28
24891 31111 31114 28
24892 31111 31115 28
24893 31116 31117 28
24894 31116 31118 28
24895 31116 31119 28
24896 31116 31120 28
24897 31121 31122 28
24898 31121 31123 28
24899 31121 31124 28
24900 31121 31125 28
24901 31126 31127 28
24902 31126 31128 28
24903 31126 31129 28
24904 31126 31130 28
24905 31131 31132 28
24906 31131 31133 28
24907 31131 31134 28
24908 31131 31135 28
24909 31136 31137 28
24910 31136 31138 28
24911 31136 31139 28
24912 31136 31140 28
24913 31141 31142 28
24914 31141 31143 28
24915 31141 31144 28
24916 31141 31145 28
24917 31146 31147 28
24918 31146 31148 28
24919 31146 31149 28
24920 31146 31150 28
24921 31151 31152 28
24922 31151 31153 28
24923 31151 31154 28
24924 31151 31155 28
24925 31156 31157 28
24926 31156 31158 28
24927 31156 31159 28
24928 31156 31160 28
24929 31161 31162 28
24930 31161 31163 28
24931 31161 31164 28
24932 31161 31165 28
24933 31166 31167 28
24934 31166 31168 28
24935 31166 31169 28
24936 31166 31170 28
24937 31171 31172 28
24938 31171 31173 28
24939 31171 31174 28
24940 31171 31175 28
24941 31176 31177 28
24942 31176 31178 28
24943 31176 31179 28
24944 31176 31180 28
24945 31181 31182 28
24946 31181 31183 28
24947 31181 31184 28
24948 31181 31185 28
24949 31186 31187 28
24950 31186 31188 28
24951 31186 31189 28
24952 31186 31190 28
24953 31191 31192 28
24954 31191 31193 28
24955 31191 31194 28
24956 31191 31195 28
24957 31196 31197 28
24958 31196 31198 28
24959 31196 31199 28
24960 31196 31200 28
24961 31201 31202 28
24962 31201 31203 28
24963 31201 31204 28
24964 31201 31205 28
24965 31206 31207 28
24966 31206 31208 28
24967 31206 31209 28
24968 31206 31210 28
24969 31211 31212 28
24970 31211 31213 28
24971 31211 31214 28
24972 31211 31215 28
24973 31216 31217 28
24974 31216 31218 28
24975 31216 31219 28
24976 31216 31220 28
24977 31221 31222 28
24978 31221 31223 28
24979 31221 31224 28
24980 31221 31225 28
24981 31226 31227 28
24982 31226 31228 28
24983 31226 31229 28
24984 31226 31230 28
24985 31231 31232 28
24986 31231 31233 28
24987 31231 31234 28
24988 31231 31235 28
24989 31236 31237 28
24990 31236 31238 28
24991 31236 31239 28
24992 31236 31240 28
24993 31241 31242 28
24994 31241 31243 28
24995 31241 31244 28
24996 31241 31245 28
24997 31246 31247 28
24998 31246 31248 28
24999 31246 31249 28
25000 31246 31250 28
25001 31251 31252 28
25002 31251 31253 28
25003 31251 31254 28
25004 31251 31255 28
25005 31256 31257 28
25006 31256 31258 28
25007 31256 31259 28
25008 31256 31260 28
25009 31261 31262 28
25010 31261 31263 28
25011 31261 31264 28
25012 31261 31265 28
25013 31266 31267 28
25014 31266 31268 28
25015 31266 31269 28
25016 31266 31270 28
25017 31271 31272 28
25018 31271 31273 28
25019 31271 31274 28
25020 31271 31275 28
25021 31276 31277 28
25022 31276 31278 28
25023 31276 31279 28
25024 31276 31280 28
25025 31281 31282 28
25026 31281 31283 28
25027 31281 31284 28
25028 31281 31285 28
25029 31286 31287 28
25030 31286 31288 28
25031 31286 31289 28
25032 31286 31290 28
25033 31291 31292 28
25034 31291 31293 28
25035 31291 31294 28
25036 31291 31295 28
25037 31296 31297 28
25038 31296 31298 28
25039 31296 31299 28
25040 31296 31300 28
25041 31301 31302 28
25042 31301 31303 28
25043 31301 31304 28
25044 31301 31305 28
25045 31306 31307 28
25046 31306 31308 28
25047 31306 31309 28
25048 31306 31310 28
25049 31311 31312 28
25050 31311 31313 28
25051 31311 31314 28
25052 31311 31315 28
25053 31316 31317 28
25054 31316 31318 28
25055 31316 31319 28
25056 31316 31320 28
25057 31321 31322 28
25058 31321 31323 28
25059 31321 31324 28
25060 31321 31325 28
25061 31326 31327 28
25062 31326 31328 28
25063 31326 31329 28
25064 31326 31330 28
25065 31331 31332 28
25066 31331 31333 28
25067 31331 31334 28
25068 31331 31335 28
25069 31336 31337 28
25070 31336 31338 28
25071 31336 31339 28
25072 31336 31340 28
25073 31341 31342 28
25074 31341 31343 28
25075 31341 31344 28
25076 31341 31345 28
25077 31346 31347 28
25078 31346 31348 28
25079 31346 31349 28
25080 31346 31350 28
25081 31351 31352 28
25082 31351 31353 28
25083 31351 31354 28
25084 31351 31355 28
25085 31356 31357 28
25086 31356 31358 28
25087 31356 31359 28
25088 31356 31360 28
25089 31361 31362 28
25090 31361 31363 28
25091 31361 31364 28
25092 31361 31365 28
25093 31366 31367 28
25094 31366 31368 28
25095 31366 31369 28
25096 31366 31370 28
25097 31371 31372 28
25098 31371 31373 28
25099 31371 31374 28
25100 31371 31375 28
25101 31376 31377 28
25102 31376 31378 28
25103 31376 31379 28
25104 31376 31380 28
25105 31381 31382 28
25106 31381 31383 28
25107 31381 31384 28
25108 31381 31385 28
25109 31386 31387 28
25110 31386 31388 28
25111 31386 31389 28
25112 31386 31390 28
25113 31391 31392 28
25114 31391 31393 28
25115 31391 31394 28
25116 31391 31395 28
25117 31396 31397 28
25118 31396 31398 28
25119 31396 31399 28
25120 31396 31400 28
25121 31401 31402 28
25122 31401 31403 28
25123 31401 31404 28
25124 31401 31405 28
25125 31406 31407 28
25126 31406 31408 28
25127 31406 31409 28
25128 31406 31410 28
25129 31411 31412 28
25130 31411 31413 28
25131 31411 31414 28
25132 31411 31415 28
25133 31416 31417 28
25134 31416 31418 28
25135 31416 31419 28
25136 31416 31420 28
25137 31421 31422 28
25138 31421 31423 28
25139 31421 31424 28
25140 31421 31425 28
25141 31426 31427 28
25142 31426 31428 28
25143 31426 31429 28
25144 31426 31430 28
25145 31431 31432 28
25146 31431 31433 28
25147 31431 31434 28
25148 31431 31435 28
25149 31436 31437 28
25150 31436 31438 28
25151 31436 31439 28
25152 31436 31440 28
25153 31441 31442 28
25154 31441 31443 28
25155 31441 31444 28
25156 31441 31445 28
25157 31446 31447 28
25158 31446 31448 28
25159 31446 31449 28
25160 31446 31450 28
25161 31451 31452 28
25162 31451 31453 28
25163 31451 31454 28
25164 31451 31455 28
25165 31456 31457 28
25166 31456 31458 28
25167 31456 31459 28
25168 31456 31460 28
25169 31461 31462 28
25170 31461 31463 28
25171 31461 31464 28
25172 31461 31465 28
25173 31466 31467 28
25174 31466 31468 28
25175 31466 31469 28
25176 31466 31470 28
25177 31471 31472 28
25178 31471 31473 28
25179 31471 31474 28
25180 31471 31475 28
25181 31476 31477 28
25182 31476 31478 28
25183 31476 31479 28
25184 31476 31480 28
25185 31481 31482 28
25186 31481 31483 28
25187 31481 31484 28
25188 31481 31485 28
25189 31486 31487 28
25190 31486 31488 28
25191 31486 31489 28
25192 31486 31490 28
25193 31491 31492 28
25194 31491 31493 28
25195 31491 31494 28
25196 31491 31495 28
25197 31496 31497 28
25198 31496 31498 28
25199 31496 31499 28
25200 31496 31500 28
25201 31501 31502 28
25202 31501 31503 28
25203 31501 31504 28
25204 31501 31505 28
25205 31506 31507 28
25206 31506 31508 28
25207 31506 31509 28
25208 31506 31510 28
25209 31511 31512 28
25210 31511 31513 28
25211 31511 31514 28
25212 31511 31515 28
25213 31516 31517 28
25214 31516 31518 28
25215 31516 31519 28
25216 31516 31520 28
25217 31521 31522 28
25218 31521 31523 28
25219 31521 31524 28
25220 31521 31525 28
25221 31526 31527 28
25222 31526 31528 28
25223 31526 31529 28
25224 31526 31530 28
25225 31531 31532 28
25226 31531 31533 28
25227 31531 31534 28
25228 31531 31535 28
25229 31536 31537 28
25230 31536 31538 28
25231 31536 31539 28
25232 31536 31540 28
25233 31541 31542 28
25234 31541 31543 28
25235 31541 31544 28
25236 31541 31545 28
25237 31546 31547 28
25238 31546 31548 28
25239 31546 31549 28
25240 31546 31550 28
25241 31551 31552 28
25242 31551 31553 28
25243 31551 31554 28
25244 31551 31555 28
25245 31556 31557 28
25246 31556 31558 28
25247 31556 31559 28
25248 31556 31560 28
25249 31561 31562 28
25250 31561 31563 28
25251 31561 31564 28
25252 31561 31565 28
25253 31566 31567 28
25254 31566 31568 28
25255 31566 31569 28
25256 31566 31570 28
25257 31571 31572 28
25258 31571 31573 28
25259 31571 31574 28
25260 31571 31575 28
25261 31576 31577 28
25262 31576 31578 28
25263 31576 31579 28
25264 31576 31580 28
25265 31581 31582 28
25266 31581 31583 28
25267 31581 31584 28
25268 31581 31585 28
25269 31586 31587 28
25270 31586 31588 28
25271 31586 31589 28
25272 31586 31590 28
25273 31591 31592 28
25274 31591 31593 28
25275 31591 31594 28
25276 31591 31595 28
25277 31596 31597 28
25278 31596 31598 28
25279 31596 31599 28
25280 31596 31600 28
25281 31601 31602 28
25282 31601 31603 28
25283 31601 31604 28
25284 31601 31605 28
25285 31606 31607 28
25286 31606 31608 28
25287 31606 31609 28
25288 31606 31610 28
25289 31611 31612 28
25290 31611 31613 28
25291 31611 31614 28
25292 31611 31615 28
25293 31616 31617 28
25294 31616 31618 28
25295 31616 31619 28
25296 31616 31620 28
25297 31621 31622 28
25298 31621 31623 28
25299 31621 31624 28
25300 31621 31625 28
25301 31626 31627 28
25302 31626 31628 28
25303 31626 31629 28
25304 31626 31630 28
25305 31631 31632 28
25306 31631 31633 28
25307 31631 31634 28
25308 31631 31635 28
25309 31636 31637 28
25310 31636 31638 28
25311 31636 31639 28
25312 31636 31640 28
25313 31641 31642 28
25314 31641 31643 28
25315 31641 31644 28
25316 31641 31645 28
25317 31646 31647 28
25318 31646 31648 28
25319 31646 31649 28
25320 31646 31650 28
25321 31651 31652 28
25322 31651 31653 28
25323 31651 31654 28
25324 31651 31655 28
25325 31656 31657 28
25326 31656 31658 28
25327 31656 31659 28
25328 31656 31660 28
25329 31661 31662 28
25330 31661 31663 28
25331 31661 31664 28
25332 31661 31665 28
25333 31666 31667 28
25334 31666 31668 28
25335 31666 31669 28
25336 31666 31670 28
25337 31671 31672 28
25338 31671 31673 28
25339 31671 31674 28
25340 31671 31675 28
25341 31676 31677 28
25342 31676 31678 28
25343 31676 31679 28
25344 31676 31680 28
25345 31681 31682 28
25346 31681 31683 28
25347 31681 31684 28
25348 31681 31685 28
25349 31686 31687 28
25350 31686 31688 28
25351 31686 31689 28
25352 31686 31690 28
25353 31691 31692 28
25354 31691 31693 28
25355 31691 31694 28
25356 31691 31695 28
25357 31696 31697 28
25358 31696 31698 28
25359 31696 31699 28
25360 31696 31700 28
25361 31701 31702 28
25362 31701 31703 28
25363 31701 31704 28
25364 31701 31705 28
25365 31706 31707 28
25366 31706 31708 28
25367 31706 31709 28
25368 31706 31710 28
25369 31711 31712 28
25370 31711 31713 28
25371 31711 31714 28
25372 31711 31715 28
25373 31716 31717 28
25374 31716 31718 28
25375 31716 31719 28
25376 31716 31720 28
25377 31721 31722 28
25378 31721 31723 28
25379 31721 31724 28
25380 31721 31725 28
25381 31726 31727 28
25382 31726 31728 28
25383 31726 31729 28
25384 31726 31730 28
25385 31731 31732 28
25386 31731 31733 28
25387 31731 31734 28
25388 31731 31735 28
25389 31736 31737 28
25390 31736 31738 28
25391 31736 31739 28
25392 31736 31740 28
25393 31741 31742 28
25394 31741 31743 28
25395 31741 31744 28
25396 31741 31745 28
25397 31746 31747 28
25398 31746 31748 28
25399 31746 31749 28
25400 31746 31750 28
25401 31751 31752 28
25402 31751 31753 28
25403 31751 31754 28
25404 31751 31755 28
25405 31756 31757 28
25406 31756 31758 28
25407 31756 31759 28
25408 31756 31760 28
25409 31761 31762 28
25410 31761 31763 28
25411 31761 31764 28
25412 31761 31765 28
25413 31766 31767 28
25414 31766 31768 28
25415 31766 31769 28
25416 31766 31770 28
25417 31771 31772 28
25418 31771 31773 28
25419 31771 31774 28
25420 31771 31775 28
25421 31776 31777 28
25422 31776 31778 28
25423 31776 31779 28
25424 31776 31780 28
25425 31781 31782 28
25426 31781 31783 28
25427 31781 31784 28
25428 31781 31785 28
25429 31786 31787 28
25430 31786 31788 28
25431 31786 31789 28
25432 31786 31790 28
25433 31791 31792 28
25434 31791 31793 28
25435 31791 31794 28
25436 31791 31795 28
25437 31796 31797 28
25438 31796 31798 28
25439 31796 31799 28
25440 31796 31800 28
25441 31801 31802 28
25442 31801 31803 28
25443 31801 31804 28
25444 31801 31805 28
25445 31806 31807 28
25446 31806 31808 28
25447 31806 31809 28
25448 31806 31810 28
25449 31811 31812 28
25450 31811 31813 28
25451 31811 31814 28
25452 31811 31815 28
25453 31816 31817 28
25454 31816 31818 28
25455 31816 31819 28
25456 31816 31820 28
25457 31821 31822 28
25458 31821 31823 28
25459 31821 31824 28
25460 31821 31825 28
25461 31826 31827 28
25462 31826 31828 28
25463 31826 31829 28
25464 31826 31830 28
25465 31831 31832 28
25466 31831 31833 28
25467 31831 31834 28
25468 31831 31835 28
25469 31836 31837 28
25470 31836 31838 28
25471 31836 31839 28
25472 31836 31840 28
25473 31841 31842 28
25474 31841 31843 28
25475 31841 31844 28
25476 31841 31845 28
25477 31846 31847 28
25478 31846 31848 28
25479 31846 31849 28
25480 31846 31850 28
25481 31851 31852 28
25482 31851 31853 28
25483 31851 31854 28
25484 31851 31855 28
25485 31856 31857 28
25486 31856 31858 28
25487 31856 31859 28
25488 31856 31860 28
25489 31861 31862 28
25490 31861 31863 28
25491 31861 31864 28
25492 31861 31865 28
25493 31866 31867 28
25494 31866 31868 28
25495 31866 31869 28
25496 31866 31870 28
25497 31871 31872 28
25498 31871 31873 28
25499 31871 31874 28
25500 31871 31875 28
25501 31876 31877 28
25502 31876 31878 28
25503 31876 31879 28
25504 31876 31880 28
25505 31881 31882 28
25506 31881 31883 28
25507 31881 31884 28
25508 31881 31885 28
25509 31886 31887 28
25510 31886 31888 28
25511 31886 31889 28
25512 31886 31890 28
25513 31891 31892 28
25514 31891 31893 28
25515 31891 31894 28
25516 31891 31895 28
25517 31896 31897 28
25518 31896 31898 28
25519 31896 31899 28
25520 31896 31900 28
25521 31901 31902 28
25522 31901 31903 28
25523 31901 31904 28
25524 31901 31905 28
25525 31906 31907 28
25526 31906 31908 28
25527 31906 31909 28
25528 31906 31910 28
25529 31911 31912 28
25530 31911 31913 28
25531 31911 31914 28
25532 31911 31915 28
25533 31916 31917 28
25534 31916 31918 28
25535 31916 31919 28
25536 31916 31920 28
25537 31921 31922 28
25538 31921 31923 28
25539 31921 31924 28
25540 31921 31925 28
25541 31926 31927 28
25542 31926 31928 28
25543 31926 31929 28
25544 31926 31930 28
25545 31931 31932 28
25546 31931 31933 28
25547 31931 31934 28
25548 31931 31935 28
25549 31936 31937 28
25550 31936 31938 28
25551 31936 31939 28
25552 31936 31940 28
25553 31941 31942 28
25554 31941 31943 28
25555 31941 31944 28
25556 31941 31945 28
25557 31946 31947 28
25558 31946 31948 28
25559 31946 31949 28
25560 31946 31950 28
25561 31951 31952 28
25562 31951 31953 28
25563 31951 31954 28
25564 31951 31955 28
25565 31956 31957 28
25566 31956 31958 28
25567 31956 31959 28
25568 31956 31960 28
25569 31961 31962 28
25570 31961 31963 28
25571 31961 31964 28
25572 31961 31965 28
25573 31966 31967 28
25574 31966 31968 28
25575 31966 31969 28
25576 31966 31970 28
25577 31971 31972 28
25578 31971 31973 28
25579 31971 31974 28
25580 31971 31975 28
25581 31976 31977 28
25582 31976 31978 28
25583 31976 31979 28
25584 31976 31980 28
25585 31981 31982 28
25586 31981 31983 28
25587 31981 31984 28
25588 31981 31985 28
25589 31986 31987 28
25590 31986 31988 28
25591 31986 31989 28
25592 31986 31990 28
25593 31991 31992 28
25594 31991 31993 28
25595 31991 31994 28
25596 31991 31995 28
25597 31996 31997 28
25598 31996 31998 28
25599 31996 31999 28
25600 31996 32000 28
25601 32001 32002 28
25602 32001 32003 28
25603 32001 32004 28
25604 32001 32005 28
25605 32006 32007 28
25606 32006 32008 28
25607 32006 32009 28
25608 32006 32010 28
25609 32011 32012 28
25610 32011 32013 28
25611 32011 32014 28
25612 32011 32015 28
25613 32016 32017 28
25614 32016 32018 28
25615 32016 32019 28
25616 32016 32020 28
25617 32021 32022 28
25618 32021 32023 28
25619 32021 32024 28
25620 32021 32025 28
25621 32026 32027 28
25622 32026 32028 28
25623 32026 32029 28
25624 32026 32030 28
25625 32031 32032 28
25626 32031 32033 28
25627 32031 32034 28
25628 32031 32035 28
25629 32036 32037 28
25630 32036 32038 28
25631 32036 32039 28
25632 32036 32040 28
25633 32041 32042 28
25634 32041 32043 28
25635 32041 32044 28
25636 32041 32045 28
25637 32046 32047 28
25638 32046 32048 28
25639 32046 32049 28
25640 32046 32050 28
25641 32051 32052 28
25642 32051 32053 28
25643 32051 32054 28
25644 32051 32055 28
25645 32056 32057 28
25646 32056 32058 28
25647 32056 32059 28
25648 32056 32060 28
25649 32061 32062 28
25650 32061 32063 28
25651 32061 32064 28
25652 32061 32065 28
25653 32066 32067 28
25654 32066 32068 28
25655 32066 32069 28
25656 32066 32070 28
25657 32071 32072 28
25658 32071 32073 28
25659 32071 32074 28
25660 32071 32075 28
25661 32076 32077 28
25662 32076 32078 28
25663 32076 32079 28
25664 32076 32080 28
25665 32081 32082 28
25666 32081 32083 28
25667 32081 32084 28
25668 32081 32085 28
25669 32086 32087 28
25670 32086 32088 28
25671 32086 32089 28
25672 32086 32090 28
25673 32091 32092 28
25674 32091 32093 28
25675 32091 32094 28
25676 32091 32095 28
25677 32096 32097 28
25678 32096 32098 28
25679 32096 32099 28
25680 32096 32100 28
25681 32101 32102 28
25682 32101 32103 28
25683 32101 32104 28
25684 32101 32105 28
25685 32106 32107 28
25686 32106 32108 28
25687 32106 32109 28
25688 32106 32110 28
25689 32111 32112 28
25690 32111 32113 28
25691 32111 32114 28
25692 32111 32115 28
25693 32116 32117 28
25694 32116 32118 28
25695 32116 32119 28
25696 32116 32120 28
25697 32121 32122 28
25698 32121 32123 28
25699 32121 32124 28
25700 32121 32125 28
25701 32126 32127 28
25702 32126 32128 28
25703 32126 32129 28
25704 32126 32130 28
25705 32131 32132 28
25706 32131 32133 28
25707 32131 32134 28
25708 32131 32135 28
25709 32136 32137 28
25710 32136 32138 28
25711 32136 32139 28
25712 32136 32140 28
25713 32141 32142 28
25714 32141 32143 28
25715 32141 32144 28
25716 32141 32145 28
25717 32146 32147 28
25718 32146 32148 28
25719 32146 32149 28
25720 32146 32150 28
25721 32151 32152 28
25722 32151 32153 28
25723 32151 32154 28
25724 32151 32155 28
25725 32156 32157 28
25726 32156 32158 28
25727 32156 32159 28
25728 32156 32160 28
25729 32161 32162 28
25730 32161 32163 28
25731 32161 32164 28
25732 32161 32165 28
25733 32166 32167 28
25734 32166 32168 28
25735 32166 32169 28
25736 32166 32170 28
25737 32171 32172 28
25738 32171 32173 28
25739 32171 32174 28
25740 32171 32175 28
25741 32176 32177 28
25742 32176 32178 28
25743 32176 32179 28
25744 32176 32180 28
25745 32181 32182 28
25746 32181 32183 28
25747 32181 32184 28
25748 32181 32185 28
25749 32186 32187 28
25750 32186 32188 28
25751 32186 32189 28
25752 32186 32190 28
25753 32191 32192 28
25754 32191 32193 28
25755 32191 32194 28
25756 32191 32195 28
25757 32196 32197 28
25758 32196 32198 28
25759 32196 32199 28
25760 32196 32200 28
25761 32201 32202 28
25762 32201 32203 28
25763 32201 32204 28
25764 32201 32205 28
25765 32206 32207 28
25766 32206 32208 28
25767 32206 32209 28
25768 32206 32210 28
25769 32211 32212 28
25770 32211 32213 28
25771 32211 32214 28
25772 32211 32215 28
25773 32216 32217 28
25774 32216 32218 28
25775 32216 32219 28
25776 32216 32220 28
25777 32221 32222 28
25778 32221 32223 28
25779 32221 32224 28
25780 32221 32225 28
25781 32226 32227 28
25782 32226 32228 28
25783 32226 32229 28
25784 32226 32230 28
25785 32231 32232 28
25786 32231 32233 28
25787 32231 32234 28
25788 32231 32235 28
25789 32236 32237 28
25790 32236 32238 28
25791 32236 32239 28
25792 32236 32240 28
25793 32241 32242 28
25794 32241 32243 28
25795 32241 32244 28
25796 32241 32245 28
25797 32246 32247 28
25798 32246 32248 28
25799 32246 32249 28
25800 32246 32250 28
25801 32251 32252 28
25802 32251 32253 28
25803 32251 32254 28
25804 32251 32255 28
25805 32256 32257 28
25806 32256 32258 28
25807 32256 32259 28
25808 32256 32260 28
25809 32261 32262 28
25810 32261 32263 28
25811 32261 32264 28
25812 32261 32265 28
25813 32266 32267 28
25814 32266 32268 28
25815 32266 32269 28
25816 32266 32270 28
25817 32271 32272 28
25818 32271 32273 28
25819 32271 32274 28
25820 32271 32275 28
25821 32276 32277 28
25822 32276 32278 28
25823 32276 32279 28
25824 32276 32280 28
25825 32281 32282 28
25826 32281 32283 28
25827 32281 32284 28
25828 32281 32285 28
25829 32286 32287 28
25830 32286 32288 28
25831 32286 32289 28
25832 32286 32290 28
25833 32291 32292 28
25834 32291 32293 28
25835 32291 32294 28
25836 32291 32295 28
25837 32296 32297 28
25838 32296 32298 28
25839 32296 32299 28
25840 32296 32300 28
25841 32301 32302 28
25842 32301 32303 28
25843 32301 32304 28
25844 32301 32305 28
25845 32306 32307 28
25846 32306 32308 28
25847 32306 32309 28
25848 32306 32310 28
25849 32311 32312 28
25850 32311 32313 28
25851 32311 32314 28
25852 32311 32315 28
25853 32316 32317 28
25854 32316 32318 28
25855 32316 32319 28
25856 32316 32320 28
25857 32321 32322 28
25858 32321 32323 28
25859 32321 32324 28
25860 32321 32325 28
25861 32326 32327 28
25862 32326 32328 28
25863 32326 32329 28
25864 32326 32330 28
25865 32331 32332 28
25866 32331 32333 28
25867 32331 32334 28
25868 32331 32335 28
25869 32336 32337 28
25870 32336 32338 28
25871 32336 32339 28
25872 32336 32340 28
25873 32341 32342 28
25874 32341 32343 28
25875 32341 32344 28
25876 32341 32345 28
25877 32346 32347 28
25878 32346 32348 28
25879 32346 32349 28
25880 32346 32350 28
25881 32351 32352 28
25882 32351 32353 28
25883 32351 32354 28
25884 32351 32355 28
25885 32356 32357 28
25886 32356 32358 28
25887 32356 32359 28
25888 32356 32360 28
25889 32361 32362 28
25890 32361 32363 28
25891 32361 32364 28
25892 32361 32365 28
25893 32366 32367 28
25894 32366 32368 28
25895 32366 32369 28
25896 32366 32370 28
25897 32371 32372 28
25898 32371 32373 28
25899 32371 32374 28
25900 32371 32375 28
25901 32376 32377 28
25902 32376 32378 28
25903 32376 32379 28
25904 32376 32380 28
25905 32381 32382 28
25906 32381 32383 28
25907 32381 32384 28
25908 32381 32385 28
25909 32386 32387 28
25910 32386 32388 28
25911 32386 32389 28
25912 32386 32390 28
25913 32391 32392 28
25914 32391 32393 28
25915 32391 32394 28
25916 32391 32395 28
25917 32396 32397 28
25918 32396 32398 28
25919 32396 32399 28
25920 32396 32400 28
25921 32401 32402 28
25922 32401 32403 28
25923 32401 32404 28
25924 32401 32405 28
25925 32406 32407 28
25926 32406 32408 28
25927 32406 32409 28
25928 32406 32410 28
25929 32411 32412 28
25930 32411 32413 28
25931 32411 32414 28
25932 32411 32415 28
25933 32416 32417 28
25934 32416 32418 28
25935 32416 32419 28
25936 32416 32420 28
25937 32421 32422 28
25938 32421 32423 28
25939 32421 32424 28
25940 32421 32425 28
25941 32426 32427 28
25942 32426 32428 28
25943 32426 32429 28
25944 32426 32430 28
25945 32431 32432 28
25946 32431 32433 28
25947 32431 32434 28
25948 32431 32435 28
25949 32436 32437 28
25950 32436 32438 28
25951 32436 32439 28
25952 32436 32440 28
25953 32441 32442 28
25954 32441 32443 28
25955 32441 32444 28
25956 32441 32445 28
25957 32446 32447 28
25958 32446 32448 28
25959 32446 32449 28
25960 32446 32450 28
25961 32451 32452 28
25962 32451 32453 28
25963 32451 32454 28
25964 32451 32455 28
25965 32456 32457 28
25966 32456 32458 28
25967 32456 32459 28
25968 32456 32460 28
25969 32461 32462 28
25970 32461 32463 28
25971 32461 32464 28
25972 32461 32465 28
25973 32466 32467 28
25974 32466 32468 28
25975 32466 32469 28
25976 32466 32470 28
25977 32471 32472 28
25978 32471 32473 28
25979 32471 32474 28
25980 32471 32475 28
25981 32476 32477 28
25982 32476 32478 28
25983 32476 32479 28
25984 32476 32480 28
25985 32481 32482 28
25986 32481 32483 28
25987 32481 32484 28
25988 32481 32485 28
25989 32486 32487 28
25990 32486 32488 28
25991 32486 32489 28
25992 32486 32490 28
25993 32491 32492 28
25994 32491 32493 28
25995 32491 32494 28
25996 32491 32495 28
25997 32496 32497 28
25998 32496 32498 28
25999 32496 32499 28
26000 32496 32500 28
26001 32501 32502 28
26002 32501 32503 28
26003 32501 32504 28
26004 32501 32505 28
26005 32506 32507 28
26006 32506 32508 28
26007 32506 32509 28
26008 32506 32510 28
26009 32511 32512 28
26010 32511 32513 28
26011 32511 32514 28
26012 32511 32515 28
26013 32516 32517 28
26014 32516 32518 28
26015 32516 32519 28
26016 32516 32520 28
26017 32521 32522 28
26018 32521 32523 28
26019 32521 32524 28
26020 32521 32525 28
26021 32526 32527 28
26022 32526 32528 28
26023 32526 32529 28
26024 32526 32530 28
26025 32531 32532 28
26026 32531 32533 28
26027 32531 32534 28
26028 32531 32535 28
26029 32536 32537 28
26030 32536 32538 28
26031 32536 32539 28
26032 32536 32540 28
26033 32541 32542 28
26034 32541 32543 28
26035 32541 32544 28
26036 32541 32545 28
26037 32546 32547 28
26038 32546 32548 28
26039 32546 32549 28
26040 32546 32550 28
26041 32551 32552 28
26042 32551 32553 28
26043 32551 32554 28
26044 32551 32555 28
26045 32556 32557 28
26046 32556 32558 28
26047 32556 32559 28
26048 32556 32560 28
26049 32561 32562 28
26050 32561 32563 28
26051 32561 32564 28
26052 32561 32565 28
26053 32566 32567 28
26054 32566 32568 28
26055 32566 32569 28
26056 32566 32570 28
26057 32571 32572 28
26058 32571 32573 28
26059 32571 32574 28
26060 32571 32575 28
26061 32576 32577 28
26062 32576 32578 28
26063 32576 32579 28
26064 32576 32580 28
26065 32581 32582 28
26066 32581 32583 28
26067 32581 32584 28
26068 32581 32585 28
26069 32586 32587 28
26070 32586 32588 28
26071 32586 32589 28
26072 32586 32590 28
26073 32591 32592 28
26074 32591 32593 28
26075 32591 32594 28
26076 32591 32595 28
26077 32596 32597 28
26078 32596 32598 28
26079 32596 32599 28
26080 32596 32600 28
26081 32601 32602 28
26082 32601 32603 28
26083 32601 32604 28
26084 32601 32605 28
26085 32606 32607 28
26086 32606 32608 28
26087 32606 32609 28
26088 32606 32610 28
26089 32611 32612 28
26090 32611 32613 28
26091 32611 32614 28
26092 32611 32615 28
26093 32616 32617 28
26094 32616 32618 28
26095 32616 32619 28
26096 32616 32620 28
26097 32621 32622 28
26098 32621 32623 28
26099 32621 32624 28
26100 32621 32625 28
26101 32626 32627 28
26102 32626 32628 28
26103 32626 32629 28
26104 32626 32630 28
26105 32631 32632 28
26106 32631 32633 28
26107 32631 32634 28
26108 32631 32635 28
26109 32636 32637 28
26110 32636 32638 28
26111 32636 32639 28
26112 32636 32640 28
26113 32641 32642 28
26114 32641 32643 28
26115 32641 32644 28
26116 32641 32645 28
26117 32646 32647 28
26118 32646 32648 28
26119 32646 32649 28
26120 32646 32650 28
26121 32651 32652 28
26122 32651 32653 28
26123 32651 32654 28
26124 32651 32655 28
26125 32656 32657 28
26126 32656 32658 28
26127 32656 32659 28
26128 32656 32660 28
26129 32661 32662 28
26130 32661 32663 28
26131 32661 32664 28
26132 32661 32665 28
26133 32666 32667 28
26134 32666 32668 28
26135 32666 32669 28
26136 32666 32670 28
26137 32671 32672 28
26138 32671 32673 28
26139 32671 32674 28
26140 32671 32675 28
26141 32676 32677 28
26142 32676 32678 28
26143 32676 32679 28
26144 32676 32680 28
26145 32681 32682 28
26146 32681 32683 28
26147 32681 32684 28
26148 32681 32685 28
26149 32686 32687 28
26150 32686 32688 28
26151 32686 32689 28
26152 32686 32690 28
26153 32691 32692 28
26154 32691 32693 28
26155 32691 32694 28
26156 32691 32695 28
26157 32696 32697 28
26158 32696 32698 28
26159 32696 32699 28
26160 32696 32700 28
26161 32701 32702 28
26162 32701 32703 28
26163 32701 32704 28
26164 32701 32705 28
26165 32706 32707 28
26166 32706 32708 28
26167 32706 32709 28
26168 32706 32710 28
26169 32711 32712 28
26170 32711 32713 28
26171 32711 32714 28
26172 32711 32715 28
26173 32716 32717 28
26174 32716 32718 28
26175 32716 32719 28
26176 32716 32720 28
26177 32721 32722 28
26178 32721 32723 28
26179 32721 32724 28
26180 32721 32725 28
26181 32726 32727 28
26182 32726 32728 28
26183 32726 32729 28
26184 32726 32730 28
26185 32731 32732 28
26186 32731 32733 28
26187 32731 32734 28
26188 32731 32735 28
26189 32736 32737 28
26190 32736 32738 28
26191 32736 32739 28
26192 32736 32740 28
26193 32741 32742 28
26194 32741 32743 28
26195 32741 32744 28
26196 32741 32745 28
26197 32746 32747 28
26198 32746 32748 28
26199 32746 32749 28
26200 32746 32750 28
26201 32751 32752 28
26202 32751 32753 28
26203 32751 32754 28
26204 32751 32755 28
26205 32756 32757 28
26206 32756 32758 28
26207 32756 32759 28
26208 32756 32760 28
26209 32761 32762 28
26210 32761 32763 28
26211 32761 32764 28
26212 32761 32765 28
26213 32766 32767 28
26214 32766 32768 28
26215 32766 32769 28
26216 32766 32770 28
26217 32771 32772 28
26218 32771 32773 28
26219 32771 32774 28
26220 32771 32775 28
26221 32776 32777 28
26222 32776 32778 28
26223 32776 32779 28
26224 32776 32780 28
26225 32781 32782 28
26226 32781 32783 28
26227 32781 32784 28
26228 32781 32785 28
26229 32786 32787 28
26230 32786 32788 28
26231 32786 32789 28
26232 32786 32790 28
26233 32791 32792 28
26234 32791 32793 28
26235 32791 32794 28
26236 32791 32795 28
26237 32796 32797 28
26238 32796 32798 28
26239 32796 32799 28
26240 32796 32800 28
26241 32801 32802 28
26242 32801 32803 28
26243 32801 32804 28
26244 32801 32805 28
26245 32806 32807 28
26246 32806 32808 28
26247 32806 32809 28
26248 32806 32810 28
26249 32811 32812 28
26250 32811 32813 28
26251 32811 32814 28
26252 32811 32815 28
26253 32816 32817 28
26254 32816 32818 28
26255 32816 32819 28
26256 32816 32820 28
26257 32821 32822 28
26258 32821 32823 28
26259 32821 32824 28
26260 32821 32825 28
26261 32826 32827 28
26262 32826 32828 28
26263 32826 32829 28
26264 32826 32830 28
26265 32831 32832 28
26266 32831 32833 28
26267 32831 32834 28
26268 32831 32835 28
26269 32836 32837 28
26270 32836 32838 28
26271 32836 32839 28
26272 32836 32840 28
26273 32841 32842 28
26274 32841 32843 28
26275 32841 32844 28
26276 32841 32845 28
26277 32846 32847 28
26278 32846 32848 28
26279 32846 32849 28
26280 32846 32850 28
26281 32851 32852 28
26282 32851 32853 28
26283 32851 32854 28
26284 32851 32855 28
26285 32856 32857 28
26286 32856 32858 28
26287 32856 32859 28
26288 32856 32860 28
26289 32861 32862 28
26290 32861 32863 28
26291 32861 32864 28
26292 32861 32865 28
26293 32866 32867 28
26294 32866 32868 28
26295 32866 32869 28
26296 32866 32870 28
26297 32871 32872 28
26298 32871 32873 28
26299 32871 32874 28
26300 32871 32875 28
26301 32876 32877 28
26302 32876 32878 28
26303 32876 32879 28
26304 32876 32880 28
26305 32881 32882 28
26306 32881 32883 28
26307 32881 32884 28
26308 32881 32885 28
26309 32886 32887 28
26310 32886 32888 28
26311 32886 32889 28
26312 32886 32890 28
26313 32891 32892 28
26314 32891 32893 28
26315 32891 32894 28
26316 32891 32895 28
26317 32896 32897 28
26318 32896 32898 28
26319 32896 32899 28
26320 32896 32900 28
26321 32901 32902 28
26322 32901 32903 28
26323 32901 32904 28
26324 32901 32905 28
26325 32906 32907 28
26326 32906 32908 28
26327 32906 32909 28
26328 32906 32910 28
26329 32911 32912 28
26330 32911 32913 28
26331 32911 32914 28
26332 32911 32915 28
26333 32916 32917 28
26334 32916 32918 28
26335 32916 32919 28
26336 32916 32920 28
26337 32921 32922 28
26338 32921 32923 28
26339 32921 32924 28
26340 32921 32925 28
26341 32926 32927 28
26342 32926 32928 28
26343 32926 32929 28
26344 32926 32930 28
26345 32931 32932 28
26346 32931 32933 28
26347 32931 32934 28
26348 32931 32935 28
26349 32936 32937 28
26350 32936 32938 28
26351 32936 32939 28
26352 32936 32940 28
26353 32941 32942 28
26354 32941 32943 28
26355 32941 32944 28
26356 32941 32945 28
26357 32946 32947 28
26358 32946 32948 28
26359 32946 32949 28
26360 32946 32950 28
26361 32951 32952 28
26362 32951 32953 28
26363 32951 32954 28
26364 32951 32955 28
26365 32956 32957 28
26366 32956 32958 28
26367 32956 32959 28
26368 32956 32960 28
26369 32961 32962 28
26370 32961 32963 28
26371 32961 32964 28
26372 32961 32965 28
26373 32966 32967 28
26374 32966 32968 28
26375 32966 32969 28
26376 32966 32970 28
26377 32971 32972 28
26378 32971 32973 28
26379 32971 32974 28
26380 32971 32975 28
26381 32976 32977 28
26382 32976 32978 28
26383 32976 32979 28
26384 32976 32980 28
26385 32981 32982 28
26386 32981 32983 28
26387 32981 32984 28
26388 32981 32985 28
26389 32986 32987 28
26390 32986 32988 28
26391 32986 32989 28
26392 32986 32990 28
26393 32991 32992 28
26394 32991 32993 28
26395 32991 32994 28
26396 32991 32995 28
26397 32996 32997 28
26398 32996 32998 28
26399 32996 32999 28
26400 32996 33000 28
26401 33001 33002 28
26402 33001 33003 28
26403 33001 33004 28
26404 33001 33005 28
26405 33006 33007 28
26406 33006 33008 28
26407 33006 33009 28
26408 33006 33010 28
26409 33011 33012 28
26410 33011 33013 28
26411 33011 33014 28
26412 33011 33015 28
26413 33016 33017 28
26414 33016 33018 28
26415 33016 33019 28
26416 33016 33020 28
26417 33021 33022 28
26418 33021 33023 28
26419 33021 33024 28
26420 33021 33025 28
26421 33026 33027 28
26422 33026 33028 28
26423 33026 33029 28
26424 33026 33030 28
26425 33031 33032 28
26426 33031 33033 28
26427 33031 33034 28
26428 33031 33035 28
26429 33036 33037 28
26430 33036 33038 28
26431 33036 33039 28
26432 33036 33040 28
26433 33041 33042 28
26434 33041 33043 28
26435 33041 33044 28
26436 33041 33045 28
26437 33046 33047 28
26438 33046 33048 28
26439 33046 33049 28
26440 33046 33050 28
26441 33051 33052 28
26442 33051 33053 28
26443 33051 33054 28
26444 33051 33055 28
26445 33056 33057 28
26446 33056 33058 28
26447 33056 33059 28
26448 33056 33060 28
26449 33061 33062 28
26450 33061 33063 28
26451 33061 33064 28
26452 33061 33065 28
26453 33066 33067 28
26454 33066 33068 28
26455 33066 33069 28
26456 33066 33070 28
26457 33071 33072 28
26458 33071 33073 28
26459 33071 33074 28
26460 33071 33075 28
26461 33076 33077 28
26462 33076 33078 28
26463 33076 33079 28
26464 33076 33080 28
26465 33081 33082 28
26466 33081 33083 28
26467 33081 33084 28
26468 33081 33085 28
26469 33086 33087 28
26470 33086 33088 28
26471 33086 33089 28
26472 33086 33090 28
26473 33091 33092 28
26474 33091 33093 28
26475 33091 33094 28
26476 33091 33095 28
26477 33096 33097 28
26478 33096 33098 28
26479 33096 33099 28
26480 33096 33100 28
26481 33101 33102 28
26482 33101 33103 28
26483 33101 33104 28
26484 33101 33105 28
26485 33106 33107 28
26486 33106 33108 28
26487 33106 33109 28
26488 33106 33110 28
26489 33111 33112 28
26490 33111 33113 28
26491 33111 33114 28
26492 33111 33115 28
26493 33116 33117 28
26494 33116 33118 28
26495 33116 33119 28
26496 33116 33120 28
26497 33121 33122 28
26498 33121 33123 28
26499 33121 33124 28
26500 33121 33125 28
26501 33126 33127 28
26502 33126 33128 28
26503 33126 33129 28
26504 33126 33130 28
26505 33131 33132 28
26506 33131 33133 28
26507 33131 33134 28
26508 33131 33135 28
26509 33136 33137 28
26510 33136 33138 28
26511 33136 33139 28
26512 33136 33140 28
26513 33141 33142 28
26514 33141 33143 28
26515 33141 33144 28
26516 33141 33145 28
26517 33146 33147 28
26518 33146 33148 28
26519 33146 33149 28
26520 33146 33150 28
26521 33151 33152 28
26522 33151 33153 28
26523 33151 33154 28
26524 33151 33155 28
26525 33156 33157 28
26526 33156 33158 28
26527 33156 33159 28
26528 33156 33160 28
26529 33161 33162 28
26530 33161 33163 28
26531 33161 33164 28
26532 33161 33165 28
26533 33166 33167 28
26534 33166 33168 28
26535 33166 33169 28
26536 33166 33170 28
26537 33171 33172 28
26538 33171 33173 28
26539 33171 33174 28
26540 33171 33175 28
26541 33176 33177 28
26542 33176 33178 28
26543 33176 33179 28
26544 33176 33180 28
26545 33181 33182 28
26546 33181 33183 28
26547 33181 33184 28
26548 33181 33185 28
26549 33186 33187 28
26550 33186 33188 28
26551 33186 33189 28
26552 33186 33190 28
26553 33191 33192 28
26554 33191 33193 28
26555 33191 33194 28
26556 33191 33195 28
26557 33196 33197 28
26558 33196 33198 28
26559 33196 33199 28
26560 33196 33200 28
26561 33201 33202 28
26562 33201 33203 28
26563 33201 33204 28
26564 33201 33205 28
26565 33206 33207 28
26566 33206 33208 28
26567 33206 33209 28
26568 33206 33210 28
26569 33211 33212 28
26570 33211 33213 28
26571 33211 33214 28
26572 33211 33215 28
26573 33216 33217 28
26574 33216 33218 28
26575 33216 33219 28
26576 33216 33220 28
26577 33221 33222 28
26578 33221 33223 28
26579 33221 33224 28
26580 33221 33225 28
26581 33226 33227 28
26582 33226 33228 28
26583 33226 33229 28
26584 33226 33230 28
26585 33231 33232 28
26586 33231 33233 28
26587 33231 33234 28
26588 33231 33235 28
26589 33236 33237 28
26590 33236 33238 28
26591 33236 33239 28
26592 33236 33240 28
26593 33241 33242 28
26594 33241 33243 28
26595 33241 33244 28
26596 33241 33245 28
26597 33246 33247 28
26598 33246 33248 28
26599 33246 33249 28
26600 33246 33250 28
26601 33251 33252 28
26602 33251 33253 28
26603 33251 33254 28
26604 33251 33255 28
26605 33256 33257 28
26606 33256 33258 28
26607 33256 33259 28
26608 33256 33260 28
26609 33261 33262 28
26610 33261 33263 28
26611 33261 33264 28
26612 33261 33265 28
26613 33266 33267 28
26614 33266 33268 28
26615 33266 33269 28
26616 33266 33270 28
26617 33271 33272 28
26618 33271 33273 28
26619 33271 33274 28
26620 33271 33275 28
26621 33276 33277 28
26622 33276 33278 28
26623 33276 33279 28
26624 33276 33280 28
26625 33281 33282 28
26626 33281 33283 28
26627 33281 33284 28
26628 33281 33285 28
26629 33286 33287 28
26630 33286 33288 28
26631 33286 33289 28
26632 33286 33290 28
26633 33291 33292 28
26634 33291 33293 28
26635 33291 33294 28
26636 33291 33295 28
26637 33296 33297 28
26638 33296 33298 28
26639 33296 33299 28
26640 33296 33300 28
26641 33301 33302 28
26642 33301 33303 28
26643 33301 33304 28
26644 33301 33305 28
26645 33306 33307 28
26646 33306 33308 28
26647 33306 33309 28
26648 33306 33310 28
26649 33311 33312 28
26650 33311 33313 28
26651 33311 33314 28
26652 33311 33315 28
26653 33316 33317 28
26654 33316 33318 28
26655 33316 33319 28
26656 33316 33320 28
26657 33321 33322 28
26658 33321 33323 28
26659 33321 33324 28
26660 33321 33325 28
26661 33326 33327 28
26662 33326 33328 28
26663 33326 33329 28
26664 33326 33330 28
26665 33331 33332 28
26666 33331 33333 28
26667 33331 33334 28
26668 33331 33335 28
26669 33336 33337 28
26670 33336 33338 28
26671 33336 33339 28
26672 33336 33340 28
26673 33341 33342 28
26674 33341 33343 28
26675 33341 33344 28
26676 33341 33345 28
26677 33346 33347 28
26678 33346 33348 28
26679 33346 33349 28
26680 33346 33350 28
26681 33351 33352 28
26682 33351 33353 28
26683 33351 33354 28
26684 33351 33355 28
26685 33356 33357 28
26686 33356 33358 28
26687 33356 33359 28
26688 33356 33360 28
26689 33361 33362 28
26690 33361 33363 28
26691 33361 33364 28
26692 33361 33365 28
26693 33366 33367 28
26694 33366 33368 28
26695 33366 33369 28
26696 33366 33370 28
26697 33371 33372 28
26698 33371 33373 28
26699 33371 33374 28
26700 33371 33375 28
26701 33376 33377 28
26702 33376 33378 28
26703 33376 33379 28
26704 33376 33380 28
26705 33381 33382 28
26706 33381 33383 28
26707 33381 33384 28
26708 33381 33385 28
26709 33386 33387 28
26710 33386 33388 28
26711 33386 33389 28
26712 33386 33390 28
26713 33391 33392 28
26714 33391 33393 28
26715 33391 33394 28
26716 33391 33395 28
26717 33396 33397 28
26718 33396 33398 28
26719 33396 33399 28
26720 33396 33400 28
26721 33401 33402 28
26722 33401 33403 28
26723 33401 33404 28
26724 33401 33405 28
26725 33406 33407 28
26726 33406 33408 28
26727 33406 33409 28
26728 33406 33410 28
26729 33411 33412 28
26730 33411 33413 28
26731 33411 33414 28
26732 33411 33415 28
26733 33416 33417 28
26734 33416 33418 28
26735 33416 33419 28
26736 33416 33420 28
26737 33421 33422 28
26738 33421 33423 28
26739 33421 33424 28
26740 33421 33425 28
26741 33426 33427 28
26742 33426 33428 28
26743 33426 33429 28
26744 33426 33430 28
26745 33431 33432 28
26746 33431 33433 28
26747 33431 33434 28
26748 33431 33435 28
26749 33436 33437 28
26750 33436 33438 28
26751 33436 33439 28
26752 33436 33440 28
26753 33441 33442 28
26754 33441 33443 28
26755 33441 33444 28
26756 33441 33445 28
26757 33446 33447 28
26758 33446 33448 28
26759 33446 33449 28
26760 33446 33450 28
26761 33451 33452 28
26762 33451 33453 28
26763 33451 33454 28
26764 33451 33455 28
26765 33456 33457 28
26766 33456 33458 28
26767 33456 33459 28
26768 33456 33460 28
26769 33461 33462 28
26770 33461 33463 28
26771 33461 33464 28
26772 33461 33465 28
26773 33466 33467 28
26774 33466 33468 28
26775 33466 33469 28
26776 33466 33470 28
26777 33471 33472 28
26778 33471 33473 28
26779 33471 33474 28
26780 33471 33475 28
26781 33476 33477 28
26782 33476 33478 28
26783 33476 33479 28
26784 33476 33480 28
26785 33481 33482 28
26786 33481 33483 28
26787 33481 33484 28
26788 33481 33485 28
26789 33486 33487 28
26790 33486 33488 28
26791 33486 33489 28
26792 33486 33490 28
26793 33491 33492 28
26794 33491 33493 28
26795 33491 33494 28
26796 33491 33495 28
26797 33496 33497 28
26798 33496 33498 28
26799 33496 33499 28
26800 33496 33500 28
26801 33501 33502 28
26802 33501 33503 28
26803 33501 33504 28
26804 33501 33505 28
26805 33506 33507 28
26806 33506 33508 28
26807 33506 33509 28
26808 33506 33510 28
26809 33511 33512 28
26810 33511 33513 28
26811 33511 33514 28
26812 33511 33515 28
26813 33516 33517 28
26814 33516 33518 28
26815 33516 33519 28
26816 33516 33520 28
26817 33521 33522 28
26818 33521 33523 28
26819 33521 33524 28
26820 33521 33525 28
26821 33526 33527 28
26822 33526 33528 28
26823 33526 33529 28
26824 33526 33530 28
26825 33531 33532 28
26826 33531 33533 28
26827 33531 33534 28
26828 33531 33535 28
26829 33536 33537 28
26830 33536 33538 28
26831 33536 33539 28
26832 33536 33540 28
26833 33541 33542 28
26834 33541 33543 28
26835 33541 33544 28
26836 33541 33545 28
26837 33546 33547 28
26838 33546 33548 28
26839 33546 33549 28
26840 33546 33550 28
26841 33551 33552 28
26842 33551 33553 28
26843 33551 33554 28
26844 33551 33555 28
26845 33556 33557 28
26846 33556 33558 28
26847 33556 33559 28
26848 33556 33560 28
26849 33561 33562 28
26850 33561 33563 28
26851 33561 33564 28
26852 33561 33565 28
26853 33566 33567 28
26854 33566 33568 28
26855 33566 33569 28
26856 33566 33570 28
26857 33571 33572 28
26858 33571 33573 28
26859 33571 33574 28
26860 33571 33575 28
26861 33576 33577 28
26862 33576 33578 28
26863 33576 33579 28
26864 33576 33580 28
26865 33581 33582 28
26866 33581 33583 28
26867 33581 33584 28
26868 33581 33585 28
26869 33586 33587 28
26870 33586 33588 28
26871 33586 33589 28
26872 33586 33590 28
26873 33591 33592 28
26874 33591 33593 28
26875 33591 33594 28
26876 33591 33595 28
26877 33596 33597 28
26878 33596 33598 28
26879 33596 33599 28
26880 33596 33600 28
26881 33601 33602 28
26882 33601 33603 28
26883 33601 33604 28
26884 33601 33605 28
26885 33606 33607 28
26886 33606 33608 28
26887 33606 33609 28
26888 33606 33610 28
26889 33611 33612 28
26890 33611 33613 28
26891 33611 33614 28
26892 33611 33615 28
26893 33616 33617 28
26894 33616 33618 28
26895 33616 33619 28
26896 33616 33620 28
26897 33621 33622 28
26898 33621 33623 28
26899 33621 33624 28
26900 33621 33625 28
26901 33626 33627 28
26902 33626 33628 28
26903 33626 33629 28
26904 33626 33630 28
26905 33631 33632 28
26906 33631 33633 28
26907 33631 33634 28
26908 33631 33635 28
26909 33636 33637 28
26910 33636 33638 28
26911 33636 33639 28
26912 33636 33640 28
26913 33641 33642 28
26914 33641 33643 28
26915 33641 33644 28
26916 33641 33645 28
26917 33646 33647 28
26918 33646 33648 28
26919 33646 33649 28
26920 33646 33650 28
26921 33651 33652 28
26922 33651 33653 28
26923 33651 33654 28
26924 33651 33655 28
26925 33656 33657 28
26926 33656 33658 28
26927 33656 33659 28
26928 33656 33660 28
26929 33661 33662 28
26930 33661 33663 28
26931 33661 33664 28
26932 33661 33665 28
26933 33666 33667 28
26934 33666 33668 28
26935 33666 33669 28
26936 33666 33670 28
26937 33671 33672 28
26938 33671 33673 28
26939 33671 33674 28
26940 33671 33675 28
26941 33676 33677 28
26942 33676 33678 28
26943 33676 33679 28
26944 33676 33680 28
26945 33681 33682 28
26946 33681 33683 28
26947 33681 33684 28
26948 33681 33685 28
26949 33686 33687 28
26950 33686 33688 28
26951 33686 33689 28
26952 33686 33690 28
26953 33691 33692 28
26954 33691 33693 28
26955 33691 33694 28
26956 33691 33695 28
26957 33696 33697 28
26958 33696 33698 28
26959 33696 33699 28
26960 33696 33700 28
26961 33701 33702 28
26962 33701 33703 28
26963 33701 33704 28
26964 33701 33705 28
26965 33706 33707 28
26966 33706 33708 28
26967 33706 33709 28
26968 33706 33710 28
26969 33711 33712 28
26970 33711 33713 28
26971 33711 33714 28
26972 33711 33715 28
26973 33716 33717 28
26974 33716 33718 28
26975 33716 33719 28
26976 33716 33720 28
26977 33721 33722 28
26978 33721 33723 28
26979 33721 33724 28
26980 33721 33725 28
26981 33726 33727 28
26982 33726 33728 28
26983 33726 33729 28
26984 33726 33730 28
26985 33731 33732 28
26986 33731 33733 28
26987 33731 33734 28
26988 33731 33735 28
26989 33736 33737 28
26990 33736 33738 28
26991 33736 33739 28
26992 33736 33740 28
26993 33741 33742 28
26994 33741 33743 28
26995 33741 33744 28
26996 33741 33745 28
26997 33746 33747 28
26998 33746 33748 28
26999 33746 33749 28
27000 33746 33750 28
27001 33751 33752 28
27002 33751 33753 28
27003 33751 33754 28
27004 33751 33755 28
27005 33756 33757 28
27006 33756 33758 28
27007 33756 33759 28
27008 33756 33760 28
27009 33761 33762 28
27010 33761 33763 28
27011 33761 33764 28
27012 33761 33765 28
27013 33766 33767 28
27014 33766 33768 28
27015 33766 33769 28
27016 33766 33770 28
27017 33771 33772 28
27018 33771 33773 28
27019 33771 33774 28
27020 33771 33775 28
27021 33776 33777 28
27022 33776 33778 28
27023 33776 33779 28
27024 33776 33780 28
27025 33781 33782 28
27026 33781 33783 28
27027 33781 33784 28
27028 33781 33785 28
27029 33786 33787 28
27030 33786 33788 28
27031 33786 33789 28
27032 33786 33790 28
27033 33791 33792 28
27034 33791 33793 28
27035 33791 33794 28
27036 33791 33795 28
27037 33796 33797 28
27038 33796 33798 28
27039 33796 33799 28
27040 33796 33800 28
27041 33801 33802 28
27042 33801 33803 28
27043 33801 33804 28
27044 33801 33805 28
27045 33806 33807 28
27046 33806 33808 28
27047 33806 33809 28
27048 33806 33810 28
27049 33811 33812 28
27050 33811 33813 28
27051 33811 33814 28
27052 33811 33815 28
27053 33816 33817 28
27054 33816 33818 28
27055 33816 33819 28
27056 33816 33820 28
27057 33821 33822 28
27058 33821 33823 28
27059 33821 33824 28
27060 33821 33825 28
27061 33826 33827 28
27062 33826 33828 28
27063 33826 33829 28
27064 33826 33830 28
27065 33831 33832 28
27066 33831 33833 28
27067 33831 33834 28
27068 33831 33835 28
27069 33836 33837 28
27070 33836 33838 28
27071 33836 33839 28
27072 33836 33840 28
27073 33841 33842 28
27074 33841 33843 28
27075 33841 33844 28
27076 33841 33845 28
27077 33846 33847 28
27078 33846 33848 28
27079 33846 33849 28
27080 33846 33850 28
27081 33851 33852 28
27082 33851 33853 28
27083 33851 33854 28
27084 33851 33855 28
27085 33856 33857 28
27086 33856 33858 28
27087 33856 33859 28
27088 33856 33860 28
27089 33861 33862 28
27090 33861 33863 28
27091 33861 33864 28
27092 33861 33865 28
27093 33866 33867 28
27094 33866 33868 28
27095 33866 33869 28
27096 33866 33870 28
27097 33871 33872 28
27098 33871 33873 28
27099 33871 33874 28
27100 33871 33875 28
27101 33876 33877 28
27102 33876 33878 28
27103 33876 33879 28
27104 33876 33880 28
27105 33881 33882 28
27106 33881 33883 28
27107 33881 33884 28
27108 33881 33885 28
27109 33886 33887 28
27110 33886 33888 28
27111 33886 33889 28
27112 33886 33890 28
27113 33891 33892 28
27114 33891 33893 28
27115 33891 33894 28
27116 33891 33895 28
27117 33896 33897 28
27118 33896 33898 28
27119 33896 33899 28
27120 33896 33900 28
27121 33901 33902 28
27122 33901 33903 28
27123 33901 33904 28
27124 33901 33905 28
27125 33906 33907 28
27126 33906 33908 28
27127 33906 33909 28
27128 33906 33910 28
27129 33911 33912 28
27130 33911 33913 28
27131 33911 33914 28
27132 33911 33915 28
27133 33916 33917 28
27134 33916 33918 28
27135 33916 33919 28
27136 33916 33920 28
27137 33921 33922 28
27138 33921 33923 28
27139 33921 33924 28
27140 33921 33925 28
27141 33926 33927 28
27142 33926 33928 28
27143 33926 33929 28
27144 33926 33930 28
27145 33931 33932 28
27146 33931 33933 28
27147 33931 33934 28
27148 33931 33935 28
27149 33936 33937 28
27150 33936 33938 28
27151 33936 33939 28
27152 33936 33940 28
27153 33941 33942 28
27154 33941 33943 28
27155 33941 33944 28
27156 33941 33945 28
27157 33946 33947 28
27158 33946 33948 28
27159 33946 33949 28
27160 33946 33950 28
27161 33951 33952 28
27162 33951 33953 28
27163 33951 33954 28
27164 33951 33955 28
27165 33956 33957 28
27166 33956 33958 28
27167 33956 33959 28
27168 33956 33960 28
27169 33961 33962 28
27170 33961 33963 28
27171 33961 33964 28
27172 33961 33965 28
27173 33966 33967 28
27174 33966 33968 28
27175 33966 33969 28
27176 33966 33970 28
27177 33971 33972 28
27178 33971 33973 28
27179 33971 33974 28
27180 33971 33975 28
27181 33976 33977 28
27182 33976 33978 28
27183 33976 33979 28
27184 33976 33980 28
27185 33981 33982 28
27186 33981 33983 28
27187 33981 33984 28
27188 33981 33985 28
27189 33986 33987 28
27190 33986 33988 28
27191 33986 33989 28
27192 33986 33990 28
27193 33991 33992 28
27194 33991 33993 28
27195 33991 33994 28
27196 33991 33995 28
27197 33996 33997 28
27198 33996 33998 28
27199 33996 33999 28
27200 33996 34000 28
27201 34001 34002 28
27202 34001 34003 28
27203 34001 34004 28
27204 34001 34005 28
27205 34006 34007 28
27206 34006 34008 28
27207 34006 34009 28
27208 34006 34010 28
27209 34011 34012 28
27210 34011 34013 28
27211 34011 34014 28
27212 34011 34015 28
27213 34016 34017 28
27214 34016 34018 28
27215 34016 34019 28
27216 34016 34020 28
27217 34021 34022 28
27218 34021 34023 28
27219 34021 34024 28
27220 34021 34025 28
27221 34026 34027 28
27222 34026 34028 28
27223 34026 34029 28
27224 34026 34030 28
27225 34031 34032 28
27226 34031 34033 28
27227 34031 34034 28
27228 34031 34035 28
27229 34036 34037 28
27230 34036 34038 28
27231 34036 34039 28
27232 34036 34040 28
27233 34041 34042 28
27234 34041 34043 28
27235 34041 34044 28
27236 34041 34045 28
27237 34046 34047 28
27238 34046 34048 28
27239 34046 34049 28
27240 34046 34050 28
27241 34051 34052 28
27242 34051 34053 28
27243 34051 34054 28
27244 34051 34055 28
27245 34056 34057 28
27246 34056 34058 28
27247 34056 34059 28
27248 34056 34060 28
27249 34061 34062 28
27250 34061 34063 28
27251 34061 34064 28
27252 34061 34065 28
27253 34066 34067 28
27254 34066 34068 28
27255 34066 34069 28
27256 34066 34070 28
27257 34071 34072 28
27258 34071 34073 28
27259 34071 34074 28
27260 34071 34075 28
27261 34076 34077 28
27262 34076 34078 28
27263 34076 34079 28
27264 34076 34080 28
27265 34081 34082 28
27266 34081 34083 28
27267 34081 34084 28
27268 34081 34085 28
27269 34086 34087 28
27270 34086 34088 28
27271 34086 34089 28
27272 34086 34090 28
27273 34091 34092 28
27274 34091 34093 28
27275 34091 34094 28
27276 34091 34095 28
27277 34096 34097 28
27278 34096 34098 28
27279 34096 34099 28
27280 34096 34100 28
27281 34101 34102 28
27282 34101 34103 28
27283 34101 34104 28
27284 34101 34105 28
27285 34106 34107 28
27286 34106 34108 28
27287 34106 34109 28
27288 34106 34110 28
27289 34111 34112 28
27290 34111 34113 28
27291 34111 34114 28
27292 34111 34115 28
27293 34116 34117 28
27294 34116 34118 28
27295 34116 34119 28
27296 34116 34120 28
27297 34121 34122 28
27298 34121 34123 28
27299 34121 34124 28
27300 34121 34125 28
27301 34126 34127 28
27302 34126 34128 28
27303 34126 34129 28
27304 34126 34130 28
27305 34131 34132 28
27306 34131 34133 28
27307 34131 34134 28
27308 34131 34135 28
27309 34136 34137 28
27310 34136 34138 28
27311 34136 34139 28
27312 34136 34140 28
27313 34141 34142 28
27314 34141 34143 28
27315 34141 34144 28
27316 34141 34145 28
27317 34146 34147 28
27318 34146 34148 28
27319 34146 34149 28
27320 34146 34150 28
27321 34151 34152 28
27322 34151 34153 28
27323 34151 34154 28
27324 34151 34155 28
27325 34156 34157 28
27326 34156 34158 28
27327 34156 34159 28
27328 34156 34160 28
27329 34161 34162 28
27330 34161 34163 28
27331 34161 34164 28
27332 34161 34165 28
27333 34166 34167 28
27334 34166 34168 28
27335 34166 34169 28
27336 34166 34170 28
27337 34171 34172 28
27338 34171 34173 28
27339 34171 34174 28
27340 34171 34175 28
27341 34176 34177 28
27342 34176 34178 28
27343 34176 34179 28
27344 34176 34180 28
27345 34181 34182 28
27346 34181 34183 28
27347 34181 34184 28
27348 34181 34185 28
27349 34186 34187 28
27350 34186 34188 28
27351 34186 34189 28
27352 34186 34190 28
27353 34191 34192 28
27354 34191 34193 28
27355 34191 34194 28
27356 34191 34195 28
27357 34196 34197 28
27358 34196 34198 28
27359 34196 34199 28
27360 34196 34200 28
27361 34201 34202 28
27362 34201 34203 28
27363 34201 34204 28
27364 34201 34205 28
27365 34206 34207 28
27366 34206 34208 28
27367 34206 34209 28
27368 34206 34210 28
27369 34211 34212 28
27370 34211 34213 28
27371 34211 34214 28
27372 34211 34215 28
27373 34216 34217 28
27374 34216 34218 28
27375 34216 34219 28
27376 34216 34220 28
27377 34221 34222 28
27378 34221 34223 28
27379 34221 34224 28
27380 34221 34225 28
27381 34226 34227 28
27382 34226 34228 28
27383 34226 34229 28
27384 34226 34230 28
27385 34231 34232 28
27386 34231 34233 28
27387 34231 34234 28
27388 34231 34235 28
27389 34236 34237 28
27390 34236 34238 28
27391 34236 34239 28
27392 34236 34240 28
27393 34241 34242 28
27394 34241 34243 28
27395 34241 34244 28
27396 34241 34245 28
27397 34246 34247 28
27398 34246 34248 28
27399 34246 34249 28
27400 34246 34250 28
27401 34251 34252 28
27402 34251 34253 28
27403 34251 34254 28
27404 34251 34255 28
27405 34256 34257 28
27406 34256 34258 28
27407 34256 34259 28
27408 34256 34260 28
27409 34261 34262 28
27410 34261 34263 28
27411 34261 34264 28
27412 34261 34265 28
27413 34266 34267 28
27414 34266 34268 28
27415 34266 34269 28
27416 34266 34270 28
27417 34271 34272 28
27418 34271 34273 28
27419 34271 34274 28
27420 34271 34275 28
27421 34276 34277 28
27422 34276 34278 28
27423 34276 34279 28
27424 34276 34280 28
27425 34281 34282 28
27426 34281 34283 28
27427 34281 34284 28
27428 34281 34285 28
27429 34286 34287 28
27430 34286 34288 28
27431 34286 34289 28
27432 34286 34290 28
27433 34291 34292 28
27434 34291 34293 28
27435 34291 34294 28
27436 34291 34295 28
27437 34296 34297 28
27438 34296 34298 28
27439 34296 34299 28
27440 34296 34300 28
27441 34301 34302 28
27442 34301 34303 28
27443 34301 34304 28
27444 34301 34305 28
27445 34306 34307 28
27446 34306 34308 28
27447 34306 34309 28
27448 34306 34310 28
27449 34311 34312 28
27450 34311 34313 28
27451 34311 34314 28
27452 34311 34315 28
27453 34316 34317 28
27454 34316 34318 28
27455 34316 34319 28
27456 34316 34320 28
27457 34321 34322 28
27458 34321 34323 28
27459 34321 34324 28
27460 34321 34325 28
27461 34326 34327 28
27462 34326 34328 28
27463 34326 34329 28
27464 34326 34330 28
27465 34331 34332 28
27466 34331 34333 28
27467 34331 34334 28
27468 34331 34335 28
27469 34336 34337 28
27470 34336 34338 28
27471 34336 34339 28
27472 34336 34340 28
27473 34341 34342 28
27474 34341 34343 28
27475 34341 34344 28
27476 34341 34345 28
27477 34346 34347 28
27478 34346 34348 28
27479 34346 34349 28
27480 34346 34350 28
27481 34351 34352 28
27482 34351 34353 28
27483 34351 34354 28
27484 34351 34355 28
27485 34356 34357 28
27486 34356 34358 28
27487 34356 34359 28
27488 34356 34360 28
27489 34361 34362 28
27490 34361 34363 28
27491 34361 34364 28
27492 34361 34365 28
27493 34366 34367 28
27494 34366 34368 28
27495 34366 34369 28
27496 34366 34370 28
27497 34371 34372 28
27498 34371 34373 28
27499 34371 34374 28
27500 34371 34375 28
27501 34376 34377 28
27502 34376 34378 28
27503 34376 34379 28
27504 34376 34380 28
27505 34381 34382 28
27506 34381 34383 28
27507 34381 34384 28
27508 34381 34385 28
27509 34386 34387 28
27510 34386 34388 28
27511 34386 34389 28
27512 34386 34390 28
27513 34391 34392 28
27514 34391 34393 28
27515 34391 34394 28
27516 34391 34395 28
27517 34396 34397 28
27518 34396 34398 28
27519 34396 34399 28
27520 34396 34400 28
27521 34401 34402 28
27522 34401 34403 28
27523 34401 34404 28
27524 34401 34405 28
27525 34406 34407 28
27526 34406 34408 28
27527 34406 34409 28
27528 34406 34410 28
27529 34411 34412 28
27530 34411 34413 28
27531 34411 34414 28
27532 34411 34415 28
27533 34416 34417 28
27534 34416 34418 28
27535 34416 34419 28
27536 34416 34420 28
27537 34421 34422 28
27538 34421 34423 28
27539 34421 34424 28
27540 34421 34425 28
27541 34426 34427 28
27542 34426 34428 28
27543 34426 34429 28
27544 34426 34430 28
27545 34431 34432 28
27546 34431 34433 28
27547 34431 34434 28
27548 34431 34435 28
27549 34436 34437 28
27550 34436 34438 28
27551 34436 34439 28
27552 34436 34440 28
27553 34441 34442 28
27554 34441 34443 28
27555 34441 34444 28
27556 34441 34445 28
27557 34446 34447 28
27558 34446 34448 28
27559 34446 34449 28
27560 34446 34450 28
27561 34451 34452 28
27562 34451 34453 28
27563 34451 34454 28
27564 34451 34455 28
27565 34456 34457 28
27566 34456 34458 28
27567 34456 34459 28
27568 34456 34460 28
27569 34461 34462 28
27570 34461 34463 28
27571 34461 34464 28
27572 34461 34465 28
27573 34466 34467 28
27574 34466 34468 28
27575 34466 34469 28
27576 34466 34470 28
27577 34471 34472 28
27578 34471 34473 28
27579 34471 34474 28
27580 34471 34475 28
27581 34476 34477 28
27582 34476 34478 28
27583 34476 34479 28
27584 34476 34480 28
27585 34481 34482 28
27586 34481 34483 28
27587 34481 34484 28
27588 34481 34485 28
27589 34486 34487 28
27590 34486 34488 28
27591 34486 34489 28
27592 34486 34490 28
27593 34491 34492 28
27594 34491 34493 28
27595 34491 34494 28
27596 34491 34495 28
27597 34496 34497 28
27598 34496 34498 28
27599 34496 34499 28
27600 34496 34500 28
27601 34501 34502 28
27602 34501 34503 28
27603 34501 34504 28
27604 34501 34505 28
27605 34506 34507 28
27606 34506 34508 28
27607 34506 34509 28
27608 34506 34510 28
27609 34511 34512 28
27610 34511 34513 28
27611 34511 34514 28
27612 34511 34515 28
27613 34516 34517 28
27614 34516 34518 28
27615 34516 34519 28
27616 34516 34520 28
27617 34521 34522 28
27618 34521 34523 28
27619 34521 34524 28
27620 34521 34525 28
27621 34526 34527 28
27622 34526 34528 28
27623 34526 34529 28
27624 34526 34530 28
27625 34531 34532 28
27626 34531 34533 28
27627 34531 34534 28
27628 34531 34535 28
27629 34536 34537 28
27630 34536 34538 28
27631 34536 34539 28
27632 34536 34540 28
27633 34541 34542 28
27634 34541 34543 28
27635 34541 34544 28
27636 34541 34545 28
27637 34546 34547 28
27638 34546 34548 28
27639 34546 34549 28
27640 34546 34550 28
27641 34551 34552 28
27642 34551 34553 28
27643 34551 34554 28
27644 34551 34555 28
27645 34556 34557 28
27646 34556 34558 28
27647 34556 34559 28
27648 34556 34560 28
27649 34561 34562 28
27650 34561 34563 28
27651 34561 34564 28
27652 34561 34565 28
27653 34566 34567 28
27654 34566 34568 28
27655 34566 34569 28
27656 34566 34570 28
27657 34571 34572 28
27658 34571 34573 28
27659 34571 34574 28
27660 34571 34575 28
27661 34576 34577 28
27662 34576 34578 28
27663 34576 34579 28
27664 34576 34580 28
27665 34581 34582 28
27666 34581 34583 28
27667 34581 34584 28
27668 34581 34585 28
27669 34586 34587 28
27670 34586 34588 28
27671 34586 34589 28
27672 34586 34590 28
27673 34591 34592 28
27674 34591 34593 28
27675 34591 34594 28
27676 34591 34595 28
27677 34596 34597 28
27678 34596 34598 28
27679 34596 34599 28
27680 34596 34600 28
27681 34601 34602 28
27682 34601 34603 28
27683 34601 34604 28
27684 34601 34605 28
27685 34606 34607 28
27686 34606 34608 28
27687 34606 34609 28
27688 34606 34610 28
27689 34611 34612 28
27690 34611 34613 28
27691 34611 34614 28
27692 34611 34615 28
27693 34616 34617 28
27694 34616 34618 28
27695 34616 34619 28
27696 34616 34620 28
27697 34621 34622 28
27698 34621 34623 28
27699 34621 34624 28
27700 34621 34625 28
27701 34626 34627 28
27702 34626 34628 28
27703 34626 34629 28
27704 34626 34630 28
27705 34631 34632 28
27706 34631 34633 28
27707 34631 34634 28
27708 34631 34635 28
27709 34636 34637 28
27710 34636 34638 28
27711 34636 34639 28
27712 34636 34640 28
27713 34641 34642 28
27714 34641 34643 28
27715 34641 34644 28
27716 34641 34645 28
27717 34646 34647 28
27718 34646 34648 28
27719 34646 34649 28
27720 34646 34650 28
27721 34651 34652 28
27722 34651 34653 28
27723 34651 34654 28
27724 34651 34655 28
27725 34656 34657 28
27726 34656 34658 28
27727 34656 34659 28
27728 34656 34660 28
27729 34661 34662 28
27730 34661 34663 28
27731 34661 34664 28
27732 34661 34665 28
27733 34666 34667 28
27734 34666 34668 28
27735 34666 34669 28
27736 34666 34670 28
27737 34671 34672 28
27738 34671 34673 28
27739 34671 34674 28
27740 34671 34675 28
27741 34676 34677 28
27742 34676 34678 28
27743 34676 34679 28
27744 34676 34680 28
27745 34681 34682 28
27746 34681 34683 28
27747 34681 34684 28
27748 34681 34685 28
27749 34686 34687 28
27750 34686 34688 28
27751 34686 34689 28
27752 34686 34690 28
27753 34691 34692 28
27754 34691 34693 28
27755 34691 34694 28
27756 34691 34695 28
27757 34696 34697 28
27758 34696 34698 28
27759 34696 34699 28
27760 34696 34700 28
27761 34701 34702 28
27762 34701 34703 28
27763 34701 34704 28
27764 34701 34705 28
27765 34706 34707 28
27766 34706 34708 28
27767 34706 34709 28
27768 34706 34710 28
27769 34711 34712 28
27770 34711 34713 28
27771 34711 34714 28
27772 34711 34715 28
27773 34716 34717 28
27774 34716 34718 28
27775 34716 34719 28
27776 34716 34720 28
27777 34721 34722 28
27778 34721 34723 28
27779 34721 34724 28
27780 34721 34725 28
27781 34726 34727 28
27782 34726 34728 28
27783 34726 34729 28
27784 34726 34730 28
27785 34731 34732 28
27786 34731 34733 28
27787 34731 34734 28
27788 34731 34735 28
27789 34736 34737 28
27790 34736 34738 28
27791 34736 34739 28
27792 34736 34740 28
27793 34741 34742 28
27794 34741 34743 28
27795 34741 34744 28
27796 34741 34745 28
27797 34746 34747 28
27798 34746 34748 28
27799 34746 34749 28
27800 34746 34750 28
27801 34751 34752 28
27802 34751 34753 28
27803 34751 34754 28
27804 34751 34755 28
27805 34756 34757 28
27806 34756 34758 28
27807 34756 34759 28
27808 34756 34760 28
27809 34761 34762 28
27810 34761 34763 28
27811 34761 34764 28
27812 34761 34765 28
27813 34766 34767 28
27814 34766 34768 28
27815 34766 34769 28
27816 34766 34770 28
27817 34771 34772 28
27818 34771 34773 28
27819 34771 34774 28
27820 34771 34775 28
27821 34776 34777 28
27822 34776 34778 28
27823 34776 34779 28
27824 34776 34780 28
27825 34781 34782 28
27826 34781 34783 28
27827 34781 34784 28
27828 34781 34785 28
27829 34786 34787 28
27830 34786 34788 28
27831 34786 34789 28
27832 34786 34790 28
27833 34791 34792 28
27834 34791 34793 28
27835 34791 34794 28
27836 34791 34795 28
27837 34796 34797 28
27838 34796 34798 28
27839 34796 34799 28
27840 34796 34800 28
27841 34801 34802 28
27842 34801 34803 28
27843 34801 34804 28
27844 34801 34805 28
27845 34806 34807 28
27846 34806 34808 28
27847 34806 34809 28
27848 34806 34810 28
27849 34811 34812 28
27850 34811 34813 28
27851 34811 34814 28
27852 34811 34815 28
27853 34816 34817 28
27854 34816 34818 28
27855 34816 34819 28
27856 34816 34820 28
27857 34821 34822 28
27858 34821 34823 28
27859 34821 34824 28
27860 34821 34825 28
27861 34826 34827 28
27862 34826 34828 28
27863 34826 34829 28
27864 34826 34830 28
27865 34831 34832 28
27866 34831 34833 28
27867 34831 34834 28
27868 34831 34835 28
27869 34836 34837 28
27870 34836 34838 28
27871 34836 34839 28
27872 34836 34840 28
27873 34841 34842 28
27874 34841 34843 28
27875 34841 34844 28
27876 34841 34845 28
27877 34846 34847 28
27878 34846 34848 28
27879 34846 34849 28
27880 34846 34850 28
27881 34851 34852 28
27882 34851 34853 28
27883 34851 34854 28
27884 34851 34855 28
27885 34856 34857 28
27886 34856 34858 28
27887 34856 34859 28
27888 34856 34860 28
27889 34861 34862 28
27890 34861 34863 28
27891 34861 34864 28
27892 34861 34865 28
27893 34866 34867 28
27894 34866 34868 28
27895 34866 34869 28
27896 34866 34870 28
27897 34871 34872 28
27898 34871 34873 28
27899 34871 34874 28
27900 34871 34875 28
27901 34876 34877 28
27902 34876 34878 28
27903 34876 34879 28
27904 34876 34880 28
27905 34881 34882 28
27906 34881 34883 28
27907 34881 34884 28
27908 34881 34885 28
27909 34886 34887 28
27910 34886 34888 28
27911 34886 34889 28
27912 34886 34890 28
27913 34891 34892 28
27914 34891 34893 28
27915 34891 34894 28
27916 34891 34895 28
27917 34896 34897 28
27918 34896 34898 28
27919 34896 34899 28
27920 34896 34900 28
27921 34901 34902 28
27922 34901 34903 28
27923 34901 34904 28
27924 34901 34905 28
27925 34906 34907 28
27926 34906 34908 28
27927 34906 34909 28
27928 34906 34910 28
27929 34911 34912 28
27930 34911 34913 28
27931 34911 34914 28
27932 34911 34915 28
27933 34916 34917 28
27934 34916 34918 28
27935 34916 34919 28
27936 34916 34920 28
27937 34921 34922 28
27938 34921 34923 28
27939 34921 34924 28
27940 34921 34925 28
27941 34926 34927 28
27942 34926 34928 28
27943 34926 34929 28
27944 34926 34930 28
27945 34931 34932 28
27946 34931 34933 28
27947 34931 34934 28
27948 34931 34935 28
27949 34936 34937 28
27950 34936 34938 28
27951 34936 34939 28
27952 34936 34940 28
27953 34941 34942 28
27954 34941 34943 28
27955 34941 34944 28
27956 34941 34945 28
27957 34946 34947 28
27958 34946 34948 28
27959 34946 34949 28
27960 34946 34950 28
27961 34951 34952 28
27962 34951 34953 28
27963 34951 34954 28
27964 34951 34955 28
27965 34956 34957 28
27966 34956 34958 28
27967 34956 34959 28
27968 34956 34960 28
27969 34961 34962 28
27970 34961 34963 28
27971 34961 34964 28
27972 34961 34965 28
27973 34966 34967 28
27974 34966 34968 28
27975 34966 34969 28
27976 34966 34970 28
27977 34971 34972 28
27978 34971 34973 28
27979 34971 34974 28
27980 34971 34975 28
27981 34976 34977 28
27982 34976 34978 28
27983 34976 34979 28
27984 34976 34980 28
27985 34981 34982 28
27986 34981 34983 28
27987 34981 34984 28
27988 34981 34985 28
27989 34986 34987 28
27990 34986 34988 28
27991 34986 34989 28
27992 34986 34990 28
27993 34991 34992 28
27994 34991 34993 28
27995 34991 34994 28
27996 34991 34995 28
27997 34996 34997 28
27998 34996 34998 28
27999 34996 34999 28
28000 34996 35000 28
28001 35001 35002 28
28002 35001 35003 28
28003 35001 35004 28
28004 35001 35005 28
28005 35006 35007 28
28006 35006 35008 28
28007 35006 35009 28
28008 35006 35010 28
28009 35011 35012 28
28010 35011 35013 28
28011 35011 35014 28
28012 35011 35015 28
28013 35016 35017 28
28014 35016 35018 28
28015 35016 35019 28
28016 35016 35020 28
28017 35021 35022 28
28018 35021 35023 28
28019 35021 35024 28
28020 35021 35025 28
28021 35026 35027 28
28022 35026 35028 28
28023 35026 35029 28
28024 35026 35030 28
28025 35031 35032 28
28026 35031 35033 28
28027 35031 35034 28
28028 35031 35035 28
28029 35036 35037 28
28030 35036 35038 28
28031 35036 35039 28
28032 35036 35040 28
28033 35041 35042 28
28034 35041 35043 28
28035 35041 35044 28
28036 35041 35045 28
28037 35046 35047 28
28038 35046 35048 28
28039 35046 35049 28
28040 35046 35050 28
28041 35051 35052 28
28042 35051 35053 28
28043 35051 35054 28
28044 35051 35055 28
28045 35056 35057 28
28046 35056 35058 28
28047 35056 35059 28
28048 35056 35060 28
28049 35061 35062 28
28050 35061 35063 28
28051 35061 35064 28
28052 35061 35065 28
28053 35066 35067 28
28054 35066 35068 28
28055 35066 35069 28
28056 35066 35070 28
28057 35071 35072 28
28058 35071 35073 28
28059 35071 35074 28
28060 35071 35075 28
28061 35076 35077 28
28062 35076 35078 28
28063 35076 35079 28
28064 35076 35080 28
28065 35081 35082 28
28066 35081 35083 28
28067 35081 35084 28
28068 35081 35085 28
28069 35086 35087 28
28070 35086 35088 28
28071 35086 35089 28
28072 35086 35090 28
28073 35091 35092 28
28074 35091 35093 28
28075 35091 35094 28
28076 35091 35095 28
28077 35096 35097 28
28078 35096 35098 28
28079 35096 35099 28
28080 35096 35100 28
28081 35101 35102 28
28082 35101 35103 28
28083 35101 35104 28
28084 35101 35105 28
28085 35106 35107 28
28086 35106 35108 28
28087 35106 35109 28
28088 35106 35110 28
28089 35111 35112 28
28090 35111 35113 28
28091 35111 35114 28
28092 35111 35115 28
28093 35116 35117 28
28094 35116 35118 28
28095 35116 35119 28
28096 35116 35120 28
28097 35121 35122 28
28098 35121 35123 28
28099 35121 35124 28
28100 35121 35125 28
28101 35126 35127 28
28102 35126 35128 28
28103 35126 35129 28
28104 35126 35130 28
28105 35131 35132 28
28106 35131 35133 28
28107 35131 35134 28
28108 35131 35135 28
28109 35136 35137 28
28110 35136 35138 28
28111 35136 35139 28
28112 35136 35140 28
28113 35141 35142 28
28114 35141 35143 28
28115 35141 35144 28
28116 35141 35145 28
28117 35146 35147 28
28118 35146 35148 28
28119 35146 35149 28
28120 35146 35150 28
28121 35151 35152 28
28122 35151 35153 28
28123 35151 35154 28
28124 35151 35155 28
28125 35156 35157 28
28126 35156 35158 28
28127 35156 35159 28
28128 35156 35160 28
28129 35161 35162 28
28130 35161 35163 28
28131 35161 35164 28
28132 35161 35165 28
28133 35166 35167 28
28134 35166 35168 28
28135 35166 35169 28
28136 35166 35170 28
28137 35171 35172 28
28138 35171 35173 28
28139 35171 35174 28
28140 35171 35175 28
28141 35176 35177 28
28142 35176 35178 28
28143 35176 35179 28
28144 35176 35180 28
28145 35181 35182 28
28146 35181 35183 28
28147 35181 35184 28
28148 35181 35185 28
28149 35186 35187 28
28150 35186 35188 28
28151 35186 35189 28
28152 35186 35190 28
28153 35191 35192 28
28154 35191 35193 28
28155 35191 35194 28
28156 35191 35195 28
28157 35196 35197 28
28158 35196 35198 28
28159 35196 35199 28
28160 35196 35200 28
28161 35201 35202 28
28162 35201 35203 28
28163 35201 35204 28
28164 35201 35205 28
28165 35206 35207 28
28166 35206 35208 28
28167 35206 35209 28
28168 35206 35210 28
28169 35211 35212 28
28170 35211 35213 28
28171 35211 35214 28
28172 35211 35215 28
28173 35216 35217 28
28174 35216 35218 28
28175 35216 35219 28
28176 35216 35220 28
28177 35221 35222 28
28178 35221 35223 28
28179 35221 35224 28
28180 35221 35225 28
28181 35226 35227 28
28182 35226 35228 28
28183 35226 35229 28
28184 35226 35230 28
28185 35231 35232 28
28186 35231 35233 28
28187 35231 35234 28
28188 35231 35235 28
28189 35236 35237 28
28190 35236 35238 28
28191 35236 35239 28
28192 35236 35240 28
28193 35241 35242 28
28194 35241 35243 28
28195 35241 35244 28
28196 35241 35245 28
28197 35246 35247 28
28198 35246 35248 28
28199 35246 35249 28
28200 35246 35250 28
28201 35251 35252 28
28202 35251 35253 28
28203 35251 35254 28
28204 35251 35255 28
28205 35256 35257 28
28206 35256 35258 28
28207 35256 35259 28
28208 35256 35260 28
28209 35261 35262 28
28210 35261 35263 28
28211 35261 35264 28
28212 35261 35265 28
28213 35266 35267 28
28214 35266 35268 28
28215 35266 35269 28
28216 35266 35270 28
28217 35271 35272 28
28218 35271 35273 28
28219 35271 35274 28
28220 35271 35275 28
28221 35276 35277 28
28222 35276 35278 28
28223 35276 35279 28
28224 35276 35280 28
28225 35281 35282 28
28226 35281 35283 28
28227 35281 35284 28
28228 35281 35285 28
28229 35286 35287 28
28230 35286 35288 28
28231 35286 35289 28
28232 35286 35290 28
28233 35291 35292 28
28234 35291 35293 28
28235 35291 35294 28
28236 35291 35295 28
28237 35296 35297 28
28238 35296 35298 28
28239 35296 35299 28
28240 35296 35300 28
28241 35301 35302 28
28242 35301 35303 28
28243 35301 35304 28
28244 35301 35305 28
28245 35306 35307 28
28246 35306 35308 28
28247 35306 35309 28
28248 35306 35310 28
28249 35311 35312 28
28250 35311 35313 28
28251 35311 35314 28
28252 35311 35315 28
28253 35316 35317 28
28254 35316 35318 28
28255 35316 35319 28
28256 35316 35320 28
28257 35321 35322 28
28258 35321 35323 28
28259 35321 35324 28
28260 35321 35325 28
28261 35326 35327 28
28262 35326 35328 28
28263 35326 35329 28
28264 35326 35330 28
28265 35331 35332 28
28266 35331 35333 28
28267 35331 35334 28
28268 35331 35335 28
28269 35336 35337 28
28270 35336 35338 28
28271 35336 35339 28
28272 35336 35340 28
28273 35341 35342 28
28274 35341 35343 28
28275 35341 35344 28
28276 35341 35345 28
28277 35346 35347 28
28278 35346 35348 28
28279 35346 35349 28
28280 35346 35350 28
28281 35351 35352 28
28282 35351 35353 28
28283 35351 35354 28
28284 35351 35355 28
28285 35356 35357 28
28286 35356 35358 28
28287 35356 35359 28
28288 35356 35360 28
28289 35361 35362 28
28290 35361 35363 28
28291 35361 35364 28
28292 35361 35365 28
28293 35366 35367 28
28294 35366 35368 28
28295 35366 35369 28
28296 35366 35370 28
28297 35371 35372 28
28298 35371 35373 28
28299 35371 35374 28
28300 35371 35375 28
28301 35376 35377 28
28302 35376 35378 28
28303 35376 35379 28
28304 35376 35380 28
28305 35381 35382 28
28306 35381 35383 28
28307 35381 35384 28
28308 35381 35385 28
28309 35386 35387 28
28310 35386 35388 28
28311 35386 35389 28
28312 35386 35390 28
28313 35391 35392 28
28314 35391 35393 28
28315 35391 35394 28
28316 35391 35395 28
28317 35396 35397 28
28318 35396 35398 28
28319 35396 35399 28
28320 35396 35400 28
28321 35401 35402 28
28322 35401 35403 28
28323 35401 35404 28
28324 35401 35405 28
28325 35406 35407 28
28326 35406 35408 28
28327 35406 35409 28
28328 35406 35410 28
28329 35411 35412 28
28330 35411 35413 28
28331 35411 35414 28
28332 35411 35415 28
28333 35416 35417 28
28334 35416 35418 28
28335 35416 35419 28
28336 35416 35420 28
28337 35421 35422 28
28338 35421 35423 28
28339 35421 35424 28
28340 35421 35425 28
28341 35426 35427 28
28342 35426 35428 28
28343 35426 35429 28
28344 35426 35430 28
28345 35431 35432 28
28346 35431 35433 28
28347 35431 35434 28
28348 35431 35435 28
28349 35436 35437 28
28350 35436 35438 28
28351 35436 35439 28
28352 35436 35440 28
28353 35441 35442 28
28354 35441 35443 28
28355 35441 35444 28
28356 35441 35445 28
28357 35446 35447 28
28358 35446 35448 28
28359 35446 35449 28
28360 35446 35450 28
28361 35451 35452 28
28362 35451 35453 28
28363 35451 35454 28
28364 35451 35455 28
28365 35456 35457 28
28366 35456 35458 28
28367 35456 35459 28
28368 35456 35460 28
28369 35461 35462 28
28370 35461 35463 28
28371 35461 35464 28
28372 35461 35465 28
28373 35466 35467 28
28374 35466 35468 28
28375 35466 35469 28
28376 35466 35470 28
28377 35471 35472 28
28378 35471 35473 28
28379 35471 35474 28
28380 35471 35475 28
28381 35476 35477 28
28382 35476 35478 28
28383 35476 35479 28
28384 35476 35480 28
28385 35481 35482 28
28386 35481 35483 28
28387 35481 35484 28
28388 35481 35485 28
28389 35486 35487 28
28390 35486 35488 28
28391 35486 35489 28
28392 35486 35490 28
28393 35491 35492 28
28394 35491 35493 28
28395 35491 35494 28
28396 35491 35495 28
28397 35496 35497 28
28398 35496 35498 28
28399 35496 35499 28
28400 35496 35500 28
28401 35501 35502 28
28402 35501 35503 28
28403 35501 35504 28
28404 35501 35505 28
28405 35506 35507 28
28406 35506 35508 28
28407 35506 35509 28
28408 35506 35510 28
28409 35511 35512 28
28410 35511 35513 28
28411 35511 35514 28
28412 35511 35515 28
28413 35516 35517 28
28414 35516 35518 28
28415 35516 35519 28
28416 35516 35520 28
28417 35521 35522 28
28418 35521 35523 28
28419 35521 35524 28
28420 35521 35525 28
28421 35526 35527 28
28422 35526 35528 28
28423 35526 35529 28
28424 35526 35530 28
28425 35531 35532 28
28426 35531 35533 28
28427 35531 35534 28
28428 35531 35535 28
28429 35536 35537 28
28430 35536 35538 28
28431 35536 35539 28
28432 35536 35540 28
28433 35541 35542 28
28434 35541 35543 28
28435 35541 35544 28
28436 35541 35545 28
28437 35546 35547 28
28438 35546 35548 28
28439 35546 35549 28
28440 35546 35550 28
28441 35551 35552 28
28442 35551 35553 28
28443 35551 35554 28
28444 35551 35555 28
28445 35556 35557 28
28446 35556 35558 28
28447 35556 35559 28
28448 35556 35560 28
28449 35561 35562 28
28450 35561 35563 28
28451 35561 35564 28
28452 35561 35565 28
28453 35566 35567 28
28454 35566 35568 28
28455 35566 35569 28
28456 35566 35570 28
28457 35571 35572 28
28458 35571 35573 28
28459 35571 35574 28
28460 35571 35575 28
28461 35576 35577 28
28462 35576 35578 28
28463 35576 35579 28
28464 35576 35580 28
28465 35581 35582 28
28466 35581 35583 28
28467 35581 35584 28
28468 35581 35585 28
28469 35586 35587 28
28470 35586 35588 28
28471 35586 35589 28
28472 35586 35590 28
28473 35591 35592 28
28474 35591 35593 28
28475 35591 35594 28
28476 35591 35595 28
28477 35596 35597 28
28478 35596 35598 28
28479 35596 35599 28
28480 35596 35600 28
28481 35601 35602 28
28482 35601 35603 28
28483 35601 35604 28
28484 35601 35605 28
28485 35606 35607 28
28486 35606 35608 28
28487 35606 35609 28
28488 35606 35610 28
28489 35611 35612 28
28490 35611 35613 28
28491 35611 35614 28
28492 35611 35615 28
28493 35616 35617 28
28494 35616 35618 28
28495 35616 35619 28
28496 35616 35620 28
28497 35621 35622 28
28498 35621 35623 28
28499 35621 35624 28
28500 35621 35625 28
28501 35626 35627 28
28502 35626 35628 28
28503 35626 35629 28
28504 35626 35630 28
28505 35631 35632 28
28506 35631 35633 28
28507 35631 35634 28
28508 35631 35635 28
28509 35636 35637 28
28510 35636 35638 28
28511 35636 35639 28
28512 35636 35640 28
28513 35641 35642 28
28514 35641 35643 28
28515 35641 35644 28
28516 35641 35645 28
28517 35646 35647 28
28518 35646 35648 28
28519 35646 35649 28
28520 35646 35650 28
28521 35651 35652 28
28522 35651 35653 28
28523 35651 35654 28
28524 35651 35655 28
28525 35656 35657 28
28526 35656 35658 28
28527 35656 35659 28
28528 35656 35660 28
28529 35661 35662 28
28530 35661 35663 28
28531 35661 35664 28
28532 35661 35665 28
28533 35666 35667 28
28534 35666 35668 28
28535 35666 35669 28
28536 35666 35670 28
28537 35671 35672 28
28538 35671 35673 28
28539 35671 35674 28
28540 35671 35675 28
28541 35676 35677 28
28542 35676 35678 28
28543 35676 35679 28
28544 35676 35680 28
28545 35681 35682 28
28546 35681 35683 28
28547 35681 35684 28
28548 35681 35685 28
28549 35686 35687 28
28550 35686 35688 28
28551 35686 35689 28
28552 35686 35690 28
28553 35691 35692 28
28554 35691 35693 28
28555 35691 35694 28
28556 35691 35695 28
28557 35696 35697 28
28558 35696 35698 28
28559 35696 35699 28
28560 35696 35700 28
28561 35701 35702 28
28562 35701 35703 28
28563 35701 35704 28
28564 35701 35705 28
28565 35706 35707 28
28566 35706 35708 28
28567 35706 35709 28
28568 35706 35710 28
28569 35711 35712 28
28570 35711 35713 28
28571 35711 35714 28
28572 35711 35715 28
28573 35716 35717 28
28574 35716 35718 28
28575 35716 35719 28
28576 35716 35720 28
28577 35721 35722 28
28578 35721 35723 28
28579 35721 35724 28
28580 35721 35725 28
28581 35726 35727 28
28582 35726 35728 28
28583 35726 35729 28
28584 35726 35730 28
28585 35731 35732 28
28586 35731 35733 28
28587 35731 35734 28
28588 35731 35735 28
28589 35736 35737 28
28590 35736 35738 28
28591 35736 35739 28
28592 35736 35740 28
28593 35741 35742 28
28594 35741 35743 28
28595 35741 35744 28
28596 35741 35745 28
28597 35746 35747 28
28598 35746 35748 28
28599 35746 35749 28
28600 35746 35750 28
28601 35751 35752 28
28602 35751 35753 28
28603 35751 35754 28
28604 35751 35755 28
28605 35756 35757 28
28606 35756 35758 28
28607 35756 35759 28
28608 35756 35760 28
28609 35761 35762 28
28610 35761 35763 28
28611 35761 35764 28
28612 35761 35765 28
28613 35766 35767 28
28614 35766 35768 28
28615 35766 35769 28
28616 35766 35770 28
28617 35771 35772 28
28618 35771 35773 28
28619 35771 35774 28
28620 35771 35775 28
28621 35776 35777 28
28622 35776 35778 28
28623 35776 35779 28
28624 35776 35780 28
28625 35781 35782 28
28626 35781 35783 28
28627 35781 35784 28
28628 35781 35785 28
28629 35786 35787 28
28630 35786 35788 28
28631 35786 35789 28
28632 35786 35790 28
28633 35791 35792 28
28634 35791 35793 28
28635 35791 35794 28
28636 35791 35795 28
28637 35796 35797 28
28638 35796 35798 28
28639 35796 35799 28
28640 35796 35800 28
28641 35801 35802 28
28642 35801 35803 28
28643 35801 35804 28
28644 35801 35805 28
28645 35806 35807 28
28646 35806 35808 28
28647 35806 35809 28
28648 35806 35810 28
28649 35811 35812 28
28650 35811 35813 28
28651 35811 35814 28
28652 35811 35815 28
28653 35816 35817 28
28654 35816 35818 28
28655 35816 35819 28
28656 35816 35820 28
28657 35821 35822 28
28658 35821 35823 28
28659 35821 35824 28
28660 35821 35825 28
28661 35826 35827 28
28662 35826 35828 28
28663 35826 35829 28
28664 35826 35830 28
28665 35831 35832 28
28666 35831 35833 28
28667 35831 35834 28
28668 35831 35835 28
28669 35836 35837 28
28670 35836 35838 28
28671 35836 35839 28
28672 35836 35840 28
28673 35841 35842 28
28674 35841 35843 28
28675 35841 35844 28
28676 35841 35845 28
28677 35846 35847 28
28678 35846 35848 28
28679 35846 35849 28
28680 35846 35850 28
28681 35851 35852 28
28682 35851 35853 28
28683 35851 35854 28
28684 35851 35855 28
28685 35856 35857 28
28686 35856 35858 28
28687 35856 35859 28
28688 35856 35860 28
28689 35861 35862 28
28690 35861 35863 28
28691 35861 35864 28
28692 35861 35865 28
28693 35866 35867 28
28694 35866 35868 28
28695 35866 35869 28
28696 35866 35870 28
28697 35871 35872 28
28698 35871 35873 28
28699 35871 35874 28
28700 35871 35875 28
28701 35876 35877 28
28702 35876 35878 28
28703 35876 35879 28
28704 35876 35880 28
28705 35881 35882 28
28706 35881 35883 28
28707 35881 35884 28
28708 35881 35885 28
28709 35886 35887 28
28710 35886 35888 28
28711 35886 35889 28
28712 35886 35890 28
28713 35891 35892 28
28714 35891 35893 28
28715 35891 35894 28
28716 35891 35895 28
28717 35896 35897 28
28718 35896 35898 28
28719 35896 35899 28
28720 35896 35900 28
28721 35901 35902 28
28722 35901 35903 28
28723 35901 35904 28
28724 35901 35905 28
28725 35906 35907 28
28726 35906 35908 28
28727 35906 35909 28
28728 35906 35910 28
28729 35911 35912 28
28730 35911 35913 28
28731 35911 35914 28
28732 35911 35915 28
28733 35916 35917 28
28734 35916 35918 28
28735 35916 35919 28
28736 35916 35920 28
28737 35921 35922 28
28738 35921 35923 28
28739 35921 35924 28
28740 35921 35925 28
28741 35926 35927 28
28742 35926 35928 28
28743 35926 35929 28
28744 35926 35930 28
28745 35931 35932 28
28746 35931 35933 28
28747 35931 35934 28
28748 35931 35935 28
28749 35936 35937 28
28750 35936 35938 28
28751 35936 35939 28
28752 35936 35940 28
28753 35941 35942 28
28754 35941 35943 28
28755 35941 35944 28
28756 35941 35945 28
28757 35946 35947 28
28758 35946 35948 28
28759 35946 35949 28
28760 35946 35950 28
28761 35951 35952 28
28762 35951 35953 28
28763 35951 35954 28
28764 35951 35955 28
28765 35956 35957 28
28766 35956 35958 28
28767 35956 35959 28
28768 35956 35960 28
28769 35961 35962 28
28770 35961 35963 28
28771 35961 35964 28
28772 35961 35965 28
28773 35966 35967 28
28774 35966 35968 28
28775 35966 35969 28
28776 35966 35970 28
28777 35971 35972 28
28778 35971 35973 28
28779 35971 35974 28
28780 35971 35975 28
28781 35976 35977 28
28782 35976 35978 28
28783 35976 35979 28
28784 35976 35980 28
28785 35981 35982 28
28786 35981 35983 28
28787 35981 35984 28
28788 35981 35985 28
28789 35986 35987 28
28790 35986 35988 28
28791 35986 35989 28
28792 35986 35990 28
28793 35991 35992 28
28794 35991 35993 28
28795 35991 35994 28
28796 35991 35995 28
28797 35996 35997 28
28798 35996 35998 28
28799 35996 35999 28
28800 35996 36000 28
28801 36001 36002 28
28802 36001 36003 28
28803 36001 36004 28
28804 36001 36005 28
28805 36006 36007 28
28806 36006 36008 28
28807 36006 36009 28
28808 36006 36010 28
28809 36011 36012 28
28810 36011 36013 28
28811 36011 36014 28
28812 36011 36015 28
28813 36016 36017 28
28814 36016 36018 28
28815 36016 36019 28
28816 36016 36020 28
28817 36021 36022 28
28818 36021 36023 28
28819 36021 36024 28
28820 36021 36025 28
28821 36026 36027 28
28822 36026 36028 28
28823 36026 36029 28
28824 36026 36030 28
28825 36031 36032 28
28826 36031 36033 28
28827 36031 36034 28
28828 36031 36035 28
28829 36036 36037 28
28830 36036 36038 28
28831 36036 36039 28
28832 36036 36040 28
28833 36041 36042 28
28834 36041 36043 28
28835 36041 36044 28
28836 36041 36045 28
28837 36046 36047 28
28838 36046 36048 28
28839 36046 36049 28
28840 36046 36050 28
28841 36051 36052 28
28842 36051 36053 28
28843 36051 36054 28
28844 36051 36055 28
28845 36056 36057 28
28846 36056 36058 28
28847 36056 36059 28
28848 36056 36060 28
28849 36061 36062 28
28850 36061 36063 28
28851 36061 36064 28
28852 36061 36065 28
28853 36066 36067 28
28854 36066 36068 28
28855 36066 36069 28
28856 36066 36070 28
28857 36071 36072 28
28858 36071 36073 28
28859 36071 36074 28
28860 36071 36075 28
28861 36076 36077 28
28862 36076 36078 28
28863 36076 36079 28
28864 36076 36080 28
28865 36081 36082 28
28866 36081 36083 28
28867 36081 36084 28
28868 36081 36085 28
28869 36086 36087 28
28870 36086 36088 28
28871 36086 36089 28
28872 36086 36090 28
28873 36091 36092 28
28874 36091 36093 28
28875 36091 36094 28
28876 36091 36095 28
28877 36096 36097 28
28878 36096 36098 28
28879 36096 36099 28
28880 36096 36100 28
28881 36101 36102 28
28882 36101 36103 28
28883 36101 36104 28
28884 36101 36105 28
28885 36106 36107 28
28886 36106 36108 28
28887 36106 36109 28
28888 36106 36110 28
28889 36111 36112 28
28890 36111 36113 28
28891 36111 36114 28
28892 36111 36115 28
28893 36116 36117 28
28894 36116 36118 28
28895 36116 36119 28
28896 36116 36120 28
28897 36121 36122 28
28898 36121 36123 28
28899 36121 36124 28
28900 36121 36125 28
28901 36126 36127 28
28902 36126 36128 28
28903 36126 36129 28
28904 36126 36130 28
28905 36131 36132 28
28906 36131 36133 28
28907 36131 36134 28
28908 36131 36135 28
28909 36136 36137 28
28910 36136 36138 28
28911 36136 36139 28
28912 36136 36140 28
28913 36141 36142 28
28914 36141 36143 28
28915 36141 36144 28
28916 36141 36145 28
28917 36146 36147 28
28918 36146 36148 28
28919 36146 36149 28
28920 36146 36150 28
28921 36151 36152 28
28922 36151 36153 28
28923 36151 36154 28
28924 36151 36155 28
28925 36156 36157 28
28926 36156 36158 28
28927 36156 36159 28
28928 36156 36160 28
28929 36161 36162 28
28930 36161 36163 28
28931 36161 36164 28
28932 36161 36165 28
28933 36166 36167 28
28934 36166 36168 28
28935 36166 36169 28
28936 36166 36170 28
28937 36171 36172 28
28938 36171 36173 28
28939 36171 36174 28
28940 36171 36175 28
28941 36176 36177 28
28942 36176 36178 28
28943 36176 36179 28
28944 36176 36180 28
28945 36181 36182 28
28946 36181 36183 28
28947 36181 36184 28
28948 36181 36185 28
28949 36186 36187 28
28950 36186 36188 28
28951 36186 36189 28
28952 36186 36190 28
28953 36191 36192 28
28954 36191 36193 28
28955 36191 36194 28
28956 36191 36195 28
28957 36196 36197 28
28958 36196 36198 28
28959 36196 36199 28
28960 36196 36200 28
28961 36201 36202 28
28962 36201 36203 28
28963 36201 36204 28
28964 36201 36205 28
28965 36206 36207 28
28966 36206 36208 28
28967 36206 36209 28
28968 36206 36210 28
28969 36211 36212 28
28970 36211 36213 28
28971 36211 36214 28
28972 36211 36215 28
28973 36216 36217 28
28974 36216 36218 28
28975 36216 36219 28
28976 36216 36220 28
28977 36221 36222 28
28978 36221 36223 28
28979 36221 36224 28
28980 36221 36225 28
28981 36226 36227 28
28982 36226 36228 28
28983 36226 36229 28
28984 36226 36230 28
28985 36231 36232 28
28986 36231 36233 28
28987 36231 36234 28
28988 36231 36235 28
28989 36236 36237 28
28990 36236 36238 28
28991 36236 36239 28
28992 36236 36240 28
28993 36241 36242 28
28994 36241 36243 28
28995 36241 36244 28
28996 36241 36245 28
28997 36246 36247 28
28998 36246 36248 28
28999 36246 36249 28
29000 36246 36250 28
29001 36251 36252 28
29002 36251 36253 28
29003 36251 36254 28
29004 36251 36255 28
29005 36256 36257 28
29006 36256 36258 28
29007 36256 36259 28
29008 36256 36260 28
29009 36261 36262 28
29010 36261 36263 28
29011 36261 36264 28
29012 36261 36265 28
29013 36266 36267 28
29014 36266 36268 28
29015 36266 36269 28
29016 36266 36270 28
29017 36271 36272 28
29018 36271 36273 28
29019 36271 36274 28
29020 36271 36275 28
29021 36276 36277 28
29022 36276 36278 28
29023 36276 36279 28
29024 36276 36280 28
29025 36281 36282 28
29026 36281 36283 28
29027 36281 36284 28
29028 36281 36285 28
29029 36286 36287 28
29030 36286 36288 28
29031 36286 36289 28
29032 36286 36290 28
29033 36291 36292 28
29034 36291 36293 28
29035 36291 36294 28
29036 36291 36295 28
29037 36296 36297 28
29038 36296 36298 28
29039 36296 36299 28
29040 36296 36300 28
29041 36301 36302 28
29042 36301 36303 28
29043 36301 36304 28
29044 36301 36305 28
29045 36306 36307 28
29046 36306 36308 28
29047 36306 36309 28
29048 36306 36310 28
29049 36311 36312 28
29050 36311 36313 28
29051 36311 36314 28
29052 36311 36315 28
29053 36316 36317 28
29054 36316 36318 28
29055 36316 36319 28
29056 36316 36320 28
29057 36321 36322 28
29058 36321 36323 28
29059 36321 36324 28
29060 36321 36325 28
29061 36326 36327 28
29062 36326 36328 28
29063 36326 36329 28
29064 36326 36330 28
29065 36331 36332 28
29066 36331 36333 28
29067 36331 36334 28
29068 36331 36335 28
29069 36336 36337 28
29070 36336 36338 28
29071 36336 36339 28
29072 36336 36340 28
29073 36341 36342 28
29074 36341 36343 28
29075 36341 36344 28
29076 36341 36345 28
29077 36346 36347 28
29078 36346 36348 28
29079 36346 36349 28
29080 36346 36350 28
29081 36351 36352 28
29082 36351 36353 28
29083 36351 36354 28
29084 36351 36355 28
29085 36356 36357 28
29086 36356 36358 28
29087 36356 36359 28
29088 36356 36360 28
29089 36361 36362 28
29090 36361 36363 28
29091 36361 36364 28
29092 36361 36365 28
29093 36366 36367 28
29094 36366 36368 28
29095 36366 36369 28
29096 36366 36370 28
29097 36371 36372 28
29098 36371 36373 28
29099 36371 36374 28
29100 36371 36375 28
29101 36376 36377 28
29102 36376 36378 28
29103 36376 36379 28
29104 36376 36380 28
29105 36381 36382 28
29106 36381 36383 28
29107 36381 36384 28
29108 36381 36385 28
29109 36386 36387 28
29110 36386 36388 28
29111 36386 36389 28
29112 36386 36390 28
29113 36391 36392 28
29114 36391 36393 28
29115 36391 36394 28
29116 36391 36395 28
29117 36396 36397 28
29118 36396 36398 28
29119 36396 36399 28
29120 36396 36400 28
29121 36401 36402 28
29122 36401 36403 28
29123 36401 36404 28
29124 36401 36405 28
29125 36406 36407 28
29126 36406 36408 28
29127 36406 36409 28
29128 36406 36410 28
29129 36411 36412 28
29130 36411 36413 28
29131 36411 36414 28
29132 36411 36415 28
29133 36416 36417 28
29134 36416 36418 28
29135 36416 36419 28
29136 36416 36420 28
29137 36421 36422 28
29138 36421 36423 28
29139 36421 36424 28
29140 36421 36425 28
29141 36426 36427 28
29142 36426 36428 28
29143 36426 36429 28
29144 36426 36430 28
29145 36431 36432 28
29146 36431 36433 28
29147 36431 36434 28
29148 36431 36435 28
29149 36436 36437 28
29150 36436 36438 28
29151 36436 36439 28
29152 36436 36440 28
29153 36441 36442 28
29154 36441 36443 28
29155 36441 36444 28
29156 36441 36445 28
29157 36446 36447 28
29158 36446 36448 28
29159 36446 36449 28
29160 36446 36450 28
29161 36451 36452 28
29162 36451 36453 28
29163 36451 36454 28
29164 36451 36455 28
29165 36456 36457 28
29166 36456 36458 28
29167 36456 36459 28
29168 36456 36460 28
29169 36461 36462 28
29170 36461 36463 28
29171 36461 36464 28
29172 36461 36465 28
29173 36466 36467 28
29174 36466 36468 28
29175 36466 36469 28
29176 36466 36470 28
29177 36471 36472 28
29178 36471 36473 28
29179 36471 36474 28
29180 36471 36475 28
29181 36476 36477 28
29182 36476 36478 28
29183 36476 36479 28
29184 36476 36480 28
29185 36481 36482 28
29186 36481 36483 28
29187 36481 36484 28
29188 36481 36485 28
29189 36486 36487 28
29190 36486 36488 28
29191 36486 36489 28
29192 36486 36490 28
29193 36491 36492 28
29194 36491 36493 28
29195 36491 36494 28
29196 36491 36495 28
29197 36496 36497 28
29198 36496 36498 28
29199 36496 36499 28
29200 36496 36500 28
29201 36501 36502 28
29202 36501 36503 28
29203 36501 36504 28
29204 36501 36505 28
29205 36506 36507 28
29206 36506 36508 28
29207 36506 36509 28
29208 36506 36510 28
29209 36511 36512 28
29210 36511 36513 28
29211 36511 36514 28
29212 36511 36515 28
29213 36516 36517 28
29214 36516 36518 28
29215 36516 36519 28
29216 36516 36520 28
29217 36521 36522 28
29218 36521 36523 28
29219 36521 36524 28
29220 36521 36525 28
29221 36526 36527 28
29222 36526 36528 28
29223 36526 36529 28
29224 36526 36530 28
29225 36531 36532 28
29226 36531 36533 28
29227 36531 36534 28
29228 36531 36535 28
29229 36536 36537 28
29230 36536 36538 28
29231 36536 36539 28
29232 36536 36540 28
29233 36541 36542 28
29234 36541 36543 28
29235 36541 36544 28
29236 36541 36545 28
29237 36546 36547 28
29238 36546 36548 28
29239 36546 36549 28
29240 36546 36550 28
29241 36551 36552 28
29242 36551 36553 28
29243 36551 36554 28
29244 36551 36555 28
29245 36556 36557 28
29246 36556 36558 28
29247 36556 36559 28
29248 36556 36560 28
29249 36561 36562 28
29250 36561 36563 28
29251 36561 36564 28
29252 36561 36565 28
29253 36566 36567 28
29254 36566 36568 28
29255 36566 36569 28
29256 36566 36570 28
29257 36571 36572 28
29258 36571 36573 28
29259 36571 36574 28
29260 36571 36575 28
29261 36576 36577 28
29262 36576 36578 28
29263 36576 36579 28
29264 36576 36580 28
29265 36581 36582 28
29266 36581 36583 28
29267 36581 36584 28
29268 36581 36585 28
29269 36586 36587 28
29270 36586 36588 28
29271 36586 36589 28
29272 36586 36590 28
29273 36591 36592 28
29274 36591 36593 28
29275 36591 36594 28
29276 36591 36595 28
29277 36596 36597 28
29278 36596 36598 28
29279 36596 36599 28
29280 36596 36600 28
29281 36601 36602 28
29282 36601 36603 28
29283 36601 36604 28
29284 36601 36605 28
29285 36606 36607 28
29286 36606 36608 28
29287 36606 36609 28
29288 36606 36610 28
29289 36611 36612 28
29290 36611 36613 28
29291 36611 36614 28
29292 36611 36615 28
29293 36616 36617 28
29294 36616 36618 28
29295 36616 36619 28
29296 36616 36620 28
29297 36621 36622 28
29298 36621 36623 28
29299 36621 36624 28
29300 36621 36625 28
29301 36626 36627 28
29302 36626 36628 28
29303 36626 36629 28
29304 36626 36630 28
29305 36631 36632 28
29306 36631 36633 28
29307 36631 36634 28
29308 36631 36635 28
29309 36636 36637 28
29310 36636 36638 28
29311 36636 36639 28
29312 36636 36640 28
29313 36641 36642 28
29314 36641 36643 28
29315 36641 36644 28
29316 36641 36645 28
29317 36646 36647 28
29318 36646 36648 28
29319 36646 36649 28
29320 36646 36650 28
29321 36651 36652 28
29322 36651 36653 28
29323 36651 36654 28
29324 36651 36655 28
29325 36656 36657 28
29326 36656 36658 28
29327 36656 36659 28
29328 36656 36660 28
29329 36661 36662 28
29330 36661 36663 28
29331 36661 36664 28
29332 36661 36665 28
29333 36666 36667 28
29334 36666 36668 28
29335 36666 36669 28
29336 36666 36670 28
29337 36671 36672 28
29338 36671 36673 28
29339 36671 36674 28
29340 36671 36675 28
29341 36676 36677 28
29342 36676 36678 28
29343 36676 36679 28
29344 36676 36680 28
29345 36681 36682 28
29346 36681 36683 28
29347 36681 36684 28
29348 36681 36685 28
29349 36686 36687 28
29350 36686 36688 28
29351 36686 36689 28
29352 36686 36690 28
29353 36691 36692 28
29354 36691 36693 28
29355 36691 36694 28
29356 36691 36695 28
29357 36696 36697 28
29358 36696 36698 28
29359 36696 36699 28
29360 36696 36700 28
29361 36701 36702 28
29362 36701 36703 28
29363 36701 36704 28
29364 36701 36705 28
29365 36706 36707 28
29366 36706 36708 28
29367 36706 36709 28
29368 36706 36710 28
29369 36711 36712 28
29370 36711 36713 28
29371 36711 36714 28
29372 36711 36715 28
29373 36716 36717 28
29374 36716 36718 28
29375 36716 36719 28
29376 36716 36720 28
29377 36721 36722 28
29378 36721 36723 28
29379 36721 36724 28
29380 36721 36725 28
29381 36726 36727 28
29382 36726 36728 28
29383 36726 36729 28
29384 36726 36730 28
29385 36731 36732 28
29386 36731 36733 28
29387 36731 36734 28
29388 36731 36735 28
29389 36736 36737 28
29390 36736 36738 28
29391 36736 36739 28
29392 36736 36740 28
29393 36741 36742 28
29394 36741 36743 28
29395 36741 36744 28
29396 36741 36745 28
29397 36746 36747 28
29398 36746 36748 28
29399 36746 36749 28
29400 36746 36750 28
29401 36751 36752 28
29402 36751 36753 28
29403 36751 36754 28
29404 36751 36755 28
29405 36756 36757 28
29406 36756 36758 28
29407 36756 36759 28
29408 36756 36760 28
29409 36761 36762 28
29410 36761 36763 28
29411 36761 36764 28
29412 36761 36765 28
29413 36766 36767 28
29414 36766 36768 28
29415 36766 36769 28
29416 36766 36770 28
29417 36771 36772 28
29418 36771 36773 28
29419 36771 36774 28
29420 36771 36775 28
29421 36776 36777 28
29422 36776 36778 28
29423 36776 36779 28
29424 36776 36780 28
29425 36781 36782 28
29426 36781 36783 28
29427 36781 36784 28
29428 36781 36785 28
29429 36786 36787 28
29430 36786 36788 28
29431 36786 36789 28
29432 36786 36790 28
29433 36791 36792 28
29434 36791 36793 28
29435 36791 36794 28
29436 36791 36795 28
29437 36796 36797 28
29438 36796 36798 28
29439 36796 36799 28
29440 36796 36800 28
29441 36801 36802 28
29442 36801 36803 28
29443 36801 36804 28
29444 36801 36805 28
29445 36806 36807 28
29446 36806 36808 28
29447 36806 36809 28
29448 36806 36810 28
29449 36811 36812 28
29450 36811 36813 28
29451 36811 36814 28
29452 36811 36815 28
29453 36816 36817 28
29454 36816 36818 28
29455 36816 36819 28
29456 36816 36820 28
29457 36821 36822 28
29458 36821 36823 28
29459 36821 36824 28
29460 36821 36825 28
29461 36826 36827 28
29462 36826 36828 28
29463 36826 36829 28
29464 36826 36830 28
29465 36831 36832 28
29466 36831 36833 28
29467 36831 36834 28
29468 36831 36835 28
29469 36836 36837 28
29470 36836 36838 28
29471 36836 36839 28
29472 36836 36840 28
29473 36841 36842 28
29474 36841 36843 28
29475 36841 36844 28
29476 36841 36845 28
29477 36846 36847 28
29478 36846 36848 28
29479 36846 36849 28
29480 36846 36850 28
29481 36851 36852 28
29482 36851 36853 28
29483 36851 36854 28
29484 36851 36855 28
29485 36856 36857 28
29486 36856 36858 28
29487 36856 36859 28
29488 36856 36860 28
29489 36861 36862 28
29490 36861 36863 28
29491 36861 36864 28
29492 36861 36865 28
29493 36866 36867 28
29494 36866 36868 28
29495 36866 36869 28
29496 36866 36870 28
29497 36871 36872 28
29498 36871 36873 28
29499 36871 36874 28
29500 36871 36875 28
29501 36876 36877 28
29502 36876 36878 28
29503 36876 36879 28
29504 36876 36880 28
29505 36881 36882 28
29506 36881 36883 28
29507 36881 36884 28
29508 36881 36885 28
29509 36886 36887 28
29510 36886 36888 28
29511 36886 36889 28
29512 36886 36890 28
29513 36891 36892 28
29514 36891 36893 28
29515 36891 36894 28
29516 36891 36895 28
29517 36896 36897 28
29518 36896 36898 28
29519 36896 36899 28
29520 36896 36900 28
29521 36901 36902 28
29522 36901 36903 28
29523 36901 36904 28
29524 36901 36905 28
29525 36906 36907 28
29526 36906 36908 28
29527 36906 36909 28
29528 36906 36910 28
29529 36911 36912 28
29530 36911 36913 28
29531 36911 36914 28
29532 36911 36915 28
29533 36916 36917 28
29534 36916 36918 28
29535 36916 36919 28
29536 36916 36920 28
29537 36921 36922 28
29538 36921 36923 28
29539 36921 36924 28
29540 36921 36925 28
29541 36926 36927 28
29542 36926 36928 28
29543 36926 36929 28
29544 36926 36930 28
29545 36931 36932 28
29546 36931 36933 28
29547 36931 36934 28
29548 36931 36935 28
29549 36936 36937 28
29550 36936 36938 28
29551 36936 36939 28
29552 36936 36940 28
29553 36941 36942 28
29554 36941 36943 28
29555 36941 36944 28
29556 36941 36945 28
29557 36946 36947 28
29558 36946 36948 28
29559 36946 36949 28
29560 36946 36950 28
29561 36951 36952 28
29562 36951 36953 28
29563 36951 36954 28
29564 36951 36955 28
29565 36956 36957 28
29566 36956 36958 28
29567 36956 36959 28
29568 36956 36960 28
29569 36961 36962 28
29570 36961 36963 28
29571 36961 36964 28
29572 36961 36965 28
29573 36966 36967 28
29574 36966 36968 28
29575 36966 36969 28
29576 36966 36970 28
29577 36971 36972 28
29578 36971 36973 28
29579 36971 36974 28
29580 36971 36975 28
29581 36976 36977 28
29582 36976 36978 28
29583 36976 36979 28
29584 36976 36980 28
29585 36981 36982 28
29586 36981 36983 28
29587 36981 36984 28
29588 36981 36985 28
29589 36986 36987 28
29590 36986 36988 28
29591 36986 36989 28
29592 36986 36990 28
29593 36991 36992 28
29594 36991 36993 28
29595 36991 36994 28
29596 36991 36995 28
29597 36996 36997 28
29598 36996 36998 28
29599 36996 36999 28
29600 36996 37000 28
29601 37001 37002 28
29602 37001 37003 28
29603 37001 37004 28
29604 37001 37005 28
29605 37006 37007 28
29606 37006 37008 28
29607 37006 37009 28
29608 37006 37010 28
29609 37011 37012 28
29610 37011 37013 28
29611 37011 37014 28
29612 37011 37015 28
29613 37016 37017 28
29614 37016 37018 28
29615 37016 37019 28
29616 37016 37020 28
29617 37021 37022 28
29618 37021 37023 28
29619 37021 37024 28
29620 37021 37025 28
29621 37026 37027 28
29622 37026 37028 28
29623 37026 37029 28
29624 37026 37030 28
29625 37031 37032 28
29626 37031 37033 28
29627 37031 37034 28
29628 37031 37035 28
29629 37036 37037 28
29630 37036 37038 28
29631 37036 37039 28
29632 37036 37040 28
29633 37041 37042 28
29634 37041 37043 28
29635 37041 37044 28
29636 37041 37045 28
29637 37046 37047 28
29638 37046 37048 28
29639 37046 37049 28
29640 37046 37050 28
29641 37051 37052 28
29642 37051 37053 28
29643 37051 37054 28
29644 37051 37055 28
29645 37056 37057 28
29646 37056 37058 28
29647 37056 37059 28
29648 37056 37060 28
29649 37061 37062 28
29650 37061 37063 28
29651 37061 37064 28
29652 37061 37065 28
29653 37066 37067 28
29654 37066 37068 28
29655 37066 37069 28
29656 37066 37070 28
29657 37071 37072 28
29658 37071 37073 28
29659 37071 37074 28
29660 37071 37075 28
29661 37076 37077 28
29662 37076 37078 28
29663 37076 37079 28
29664 37076 37080 28
29665 37081 37082 28
29666 37081 37083 28
29667 37081 37084 28
29668 37081 37085 28
29669 37086 37087 28
29670 37086 37088 28
29671 37086 37089 28
29672 37086 37090 28
29673 37091 37092 28
29674 37091 37093 28
29675 37091 37094 28
29676 37091 37095 28
29677 37096 37097 28
29678 37096 37098 28
29679 37096 37099 28
29680 37096 37100 28
29681 37101 37102 28
29682 37101 37103 28
29683 37101 37104 28
29684 37101 37105 28
29685 37106 37107 28
29686 37106 37108 28
29687 37106 37109 28
29688 37106 37110 28
29689 37111 37112 28
29690 37111 37113 28
29691 37111 37114 28
29692 37111 37115 28
29693 37116 37117 28
29694 37116 37118 28
29695 37116 37119 28
29696 37116 37120 28
29697 37121 37122 28
29698 37121 37123 28
29699 37121 37124 28
29700 37121 37125 28
29701 37126 37127 28
29702 37126 37128 28
29703 37126 37129 28
29704 37126 37130 28
29705 37131 37132 28
29706 37131 37133 28
29707 37131 37134 28
29708 37131 37135 28
29709 37136 37137 28
29710 37136 37138 28
29711 37136 37139 28
29712 37136 37140 28
29713 37141 37142 28
29714 37141 37143 28
29715 37141 37144 28
29716 37141 37145 28
29717 37146 37147 28
29718 37146 37148 28
29719 37146 37149 28
29720 37146 37150 28
29721 37151 37152 28
29722 37151 37153 28
29723 37151 37154 28
29724 37151 37155 28
29725 37156 37157 28
29726 37156 37158 28
29727 37156 37159 28
29728 37156 37160 28
29729 37161 37162 28
29730 37161 37163 28
29731 37161 37164 28
29732 37161 37165 28
29733 37166 37167 28
29734 37166 37168 28
29735 37166 37169 28
29736 37166 37170 28
29737 37171 37172 28
29738 37171 37173 28
29739 37171 37174 28
29740 37171 37175 28
29741 37176 37177 28
29742 37176 37178 28
29743 37176 37179 28
29744 37176 37180 28
29745 37181 37182 28
29746 37181 37183 28
29747 37181 37184 28
29748 37181 37185 28
29749 37186 37187 28
29750 37186 37188 28
29751 37186 37189 28
29752 37186 37190 28
29753 37191 37192 28
29754 37191 37193 28
29755 37191 37194 28
29756 37191 37195 28
29757 37196 37197 28
29758 37196 37198 28
29759 37196 37199 28
29760 37196 37200 28
29761 37201 37202 28
29762 37201 37203 28
29763 37201 37204 28
29764 37201 37205 28
29765 37206 37207 28
29766 37206 37208 28
29767 37206 37209 28
29768 37206 37210 28
29769 37211 37212 28
29770 37211 37213 28
29771 37211 37214 28
29772 37211 37215 28
29773 37216 37217 28
29774 37216 37218 28
29775 37216 37219 28
29776 37216 37220 28
29777 37221 37222 28
29778 37221 37223 28
29779 37221 37224 28
29780 37221 37225 28
29781 37226 37227 28
29782 37226 37228 28
29783 37226 37229 28
29784 37226 37230 28
29785 37231 37232 28
29786 37231 37233 28
29787 37231 37234 28
29788 37231 37235 28
29789 37236 37237 28
29790 37236 37238 28
29791 37236 37239 28
29792 37236 37240 28
29793 37241 37242 28
29794 37241 37243 28
29795 37241 37244 28
29796 37241 37245 28
29797 37246 37247 28
29798 37246 37248 28
29799 37246 37249 28
29800 37246 37250 28
29801 37251 37252 28
29802 37251 37253 28
29803 37251 37254 28
29804 37251 37255 28
29805 37256 37257 28
29806 37256 37258 28
29807 37256 37259 28
29808 37256 37260 28
29809 37261 37262 28
29810 37261 37263 28
29811 37261 37264 28
29812 37261 37265 28
29813 37266 37267 28
29814 37266 37268 28
29815 37266 37269 28
29816 37266 37270 28
29817 37271 37272 28
29818 37271 37273 28
29819 37271 37274 28
29820 37271 37275 28
29821 37276 37277 28
29822 37276 37278 28
29823 37276 37279 28
29824 37276 37280 28
29825 37281 37282 28
29826 37281 37283 28
29827 37281 37284 28
29828 37281 37285 28
29829 37286 37287 28
29830 37286 37288 28
29831 37286 37289 28
29832 37286 37290 28
29833 37291 37292 28
29834 37291 37293 28
29835 37291 37294 28
29836 37291 37295 28
29837 37296 37297 28
29838 37296 37298 28
29839 37296 37299 28
29840 37296 37300 28
29841 37301 37302 28
29842 37301 37303 28
29843 37301 37304 28
29844 37301 37305 28
29845 37306 37307 28
29846 37306 37308 28
29847 37306 37309 28
29848 37306 37310 28
29849 37311 37312 28
29850 37311 37313 28
29851 37311 37314 28
29852 37311 37315 28
29853 37316 37317 28
29854 37316 37318 28
29855 37316 37319 28
29856 37316 37320 28
29857 37321 37322 28
29858 37321 37323 28
29859 37321 37324 28
29860 37321 37325 28
29861 37326 37327 28
29862 37326 37328 28
29863 37326 37329 28
29864 37326 37330 28
29865 37331 37332 28
29866 37331 37333 28
29867 37331 37334 28
29868 37331 37335 28
29869 37336 37337 28
29870 37336 37338 28
29871 37336 37339 28
29872 37336 37340 28
29873 37341 37342 28
29874 37341 37343 28
29875 37341 37344 28
29876 37341 37345 28
29877 37346 37347 28
29878 37346 37348 28
29879 37346 37349 28
29880 37346 37350 28
29881 37351 37352 28
29882 37351 37353 28
29883 37351 37354 28
29884 37351 37355 28
29885 37356 37357 28
29886 37356 37358 28
29887 37356 37359 28
29888 37356 37360 28
29889 37361 37362 28
29890 37361 37363 28
29891 37361 37364 28
29892 37361 37365 28
29893 37366 37367 28
29894 37366 37368 28
29895 37366 37369 28
29896 37366 37370 28
29897 37371 37372 28
29898 37371 37373 28
29899 37371 37374 28
29900 37371 37375 28
29901 37376 37377 28
29902 37376 37378 28
29903 37376 37379 28
29904 37376 37380 28
29905 37381 37382 28
29906 37381 37383 28
29907 37381 37384 28
29908 37381 37385 28
29909 37386 37387 28
29910 37386 37388 28
29911 37386 37389 28
29912 37386 37390 28
29913 37391 37392 28
29914 37391 37393 28
29915 37391 37394 28
29916 37391 37395 28
29917 37396 37397 28
29918 37396 37398 28
29919 37396 37399 28
29920 37396 37400 28
29921 37401 37402 28
29922 37401 37403 28
29923 37401 37404 28
29924 37401 37405 28
29925 37406 37407 28
29926 37406 37408 28
29927 37406 37409 28
29928 37406 37410 28
29929 37411 37412 28
29930 37411 37413 28
29931 37411 37414 28
29932 37411 37415 28
29933 37416 37417 28
29934 37416 37418 28
29935 37416 37419 28
29936 37416 37420 28
29937 37421 37422 28
29938 37421 37423 28
29939 37421 37424 28
29940 37421 37425 28
29941 37426 37427 28
29942 37426 37428 28
29943 37426 37429 28
29944 37426 37430 28
29945 37431 37432 28
29946 37431 37433 28
29947 37431 37434 28
29948 37431 37435 28
29949 37436 37437 28
29950 37436 37438 28
29951 37436 37439 28
29952 37436 37440 28
29953 37441 37442 28
29954 37441 37443 28
29955 37441 37444 28
29956 37441 37445 28
29957 37446 37447 28
29958 37446 37448 28
29959 37446 37449 28
29960 37446 37450 28
29961 37451 37452 28
29962 37451 37453 28
29963 37451 37454 28
29964 37451 37455 28
29965 37456 37457 28
29966 37456 37458 28
29967 37456 37459 28
29968 37456 37460 28
29969 37461 37462 28
29970 37461 37463 28
29971 37461 37464 28
29972 37461 37465 28
29973 37466 37467 28
29974 37466 37468 28
29975 37466 37469 28
29976 37466 37470 28
29977 37471 37472 28
29978 37471 37473 28
29979 37471 37474 28
29980 37471 37475 28
29981 37476 37477 28
29982 37476 37478 28
29983 37476 37479 28
29984 37476 37480 28
29985 37481 37482 28
29986 37481 37483 28
29987 37481 37484 28
29988 37481 37485 28
29989 37486 37487 28
29990 37486 37488 28
29991 37486 37489 28
29992 37486 37490 28
29993 37491 37492 28
29994 37491 37493 28
29995 37491 37494 28
29996 37491 37495 28
29997 37496 37497 28
29998 37496 37498 28
29999 37496 37499 28
30000 37496 37500 28
@<TRIPOS>CRYSIN
118.87307403786352 118.87307403786352 118.87307403786352 90 90 90 1 1
