@<TRIPOS>MOLECULE
mol
37500 30000
SMALL
USER_CHARGES


@<TRIPOS>ATOM
1 C 15.136816729938687 70.92380791230295 23.846838459133807 C 0.0 **** -0.24
2 H 14.241297422084614 71.40620464140122 23.455690783073436 H 0.0 **** 0.06
3 H 16.02096005586216 71.41423882654414 23.440127214690563 H 0.0 **** 0.06
4 H 15.138339513661293 69.87289996044163 23.558082325036395 H 0.0 **** 0.06
5 H 15.145487977824217 71.0022584857972 24.93413616546519 H 0.0 **** 0.06
6 C 108.36299025863946 16.271258950121563 47.38395532992159 C 0.0 **** -0.24
7 H 109.33676395685079 16.21341907958461 46.89812174624892 H 0.0 **** 0.06
8 H 107.80016597579453 17.110300638617474 46.9733692745171 H 0.0 **** 0.06
9 H 108.50015781974243 16.41620086236273 48.455932903032334 H 0.0 **** 0.06
10 H 107.81464927346269 15.345122442485945 47.20937198604983 H 0.0 **** 0.06
11 C 22.987743656626634 93.8006440652473 51.51105310665233 C 0.0 **** -0.24
12 H 23.556407038325403 92.9734917440469 51.93558219003029 H 0.0 **** 0.06
13 H 22.57121394298403 93.49882242522028 50.549231526043144 H 0.0 **** 0.06
14 H 23.645426030407776 94.65807101708714 51.368214441202014 H 0.0 **** 0.06
15 H 22.178645085026062 94.07128671583803 52.18926915527041 H 0.0 **** 0.06
16 C 100.1861257911495 48.466226316638114 102.9712063007405 C 0.0 **** -0.24
17 H 99.84647100720855 48.101127790550066 103.94038154349656 H 0.0 **** 0.06
18 H 101.08671032788686 49.0659310191711 103.10391929681805 H 0.0 **** 0.06
19 H 99.4042825653139 49.07748965539821 102.5193918237203 H 0.0 **** 0.06
20 H 100.4059864556589 47.618981546108415 102.32115354228844 H 0.0 **** 0.06
21 C 32.39360688117986 110.32784919148185 79.24913708843488 C 0.0 **** -0.24
22 H 31.983703778477974 111.2621616865462 78.86593015198773 H 0.0 **** 0.06
23 H 32.42544533891345 109.58881876200903 78.4478597535763 H 0.0 **** 0.06
24 H 31.76381867744462 109.95984195849347 80.05839007326145 H 0.0 **** 0.06
25 H 33.40253771108627 110.50086210551288 79.6234993096119 H 0.0 **** 0.06
26 C 4.536366781014465 36.2786220951776 39.723573015822296 C 0.0 **** -0.24
27 H 3.5905213708919064 36.38100982825342 39.18989119748818 H 0.0 **** 0.06
28 H 4.899035382564989 35.255152617327695 39.62555919554703 H 0.0 **** 0.06
29 H 4.385739092487881 36.51236712746546 40.7767531677394 H 0.0 **** 0.06
30 H 5.2672262721839616 36.966238342160345 39.29904714665847 H 0.0 **** 0.06
31 C 5.527533558549692 75.18249843916874 21.613363988063696 C 0.0 **** -0.24
32 H 6.381280003240377 74.99007313322988 20.96302598480662 H 0.0 **** 0.06
33 H 4.621697550506283 75.25483433488387 21.011688334934632 H 0.0 **** 0.06
34 H 5.683688900825558 76.11744681306902 22.150906521719207 H 0.0 **** 0.06
35 H 5.424998726969605 74.36505941888265 22.32782958157327 H 0.0 **** 0.06
36 C 114.1826912468592 32.557959095617576 27.712821848402342 C 0.0 **** -0.24
37 H 114.7926666233987 33.43580780818368 27.49909150753527 H 0.0 **** 0.06
38 H 113.12789809792365 32.81874282586287 27.6261602967526 H 0.0 **** 0.06
39 H 114.38958614490465 32.2098334560267 28.72525706058829 H 0.0 **** 0.06
40 H 114.42232548875516 31.767580228895696 27.001013108202415 H 0.0 **** 0.06
41 C 10.255792242164095 45.559231225072395 107.73177670177145 C 0.0 **** -0.24
42 H 10.954367085281298 44.865484871676415 107.26591079012894 H 0.0 **** 0.06
43 H 9.590482089024754 45.01294951457194 108.40065387944603 H 0.0 **** 0.06
44 H 9.66794028665636 46.05647725995658 106.95969997483516 H 0.0 **** 0.06
45 H 10.810959897894904 46.30493284628437 108.30121586182113 H 0.0 **** 0.06
46 C 72.38109071881641 62.25905275098623 109.76259404025063 C 0.0 **** -0.24
47 H 73.10739058509736 62.661480076783135 110.46912482405267 H 0.0 **** 0.06
48 H 71.64745427006386 61.657778973043065 110.29971728410628 H 0.0 **** 0.06
49 H 72.89477213966092 61.637423923456964 109.02948903921188 H 0.0 **** 0.06
50 H 71.87671673854615 63.07968430936714 109.25349126520226 H 0.0 **** 0.06
51 C 113.40796503802227 31.739464999381823 15.197734564063353 C 0.0 **** -0.24
52 H 114.18892128548467 31.69045935189041 14.438864512130095 H 0.0 **** 0.06
53 H 112.66078166854126 32.475458497567615 14.901917877644166 H 0.0 **** 0.06
54 H 113.84821716082685 32.03046498318329 16.15238012371836 H 0.0 **** 0.06
55 H 112.9372420461614 30.761459805622337 15.298087310188919 H 0.0 **** 0.06
56 C 89.1931401657146 70.61724050167939 11.841387437237948 C 0.0 **** -0.24
57 H 88.37028300644329 71.26067015954595 11.52792386870641 H 0.0 **** 0.06
58 H 88.8051016333826 69.80808384877525 12.460077644695776 H 0.0 **** 0.06
59 H 89.91204290557337 71.20208936651119 12.414572905531127 H 0.0 **** 0.06
60 H 89.68223467187585 70.2004802812038 10.960969670377736 H 0.0 **** 0.06
61 C 62.29842287235186 25.943078342289297 16.880331862030648 C 0.0 **** -0.24
62 H 61.538427221948844 26.426397455303174 17.494415913707595 H 0.0 **** 0.06
63 H 62.5587732562792 24.979510628591527 17.31660908556719 H 0.0 **** 0.06
64 H 63.18519040766588 26.575059630791927 16.837147065188724 H 0.0 **** 0.06
65 H 61.90874696820817 25.793684137838582 15.873049842839894 H 0.0 **** 0.06
66 C 21.06682234301047 83.48647225275573 15.37266788460105 C 0.0 **** -0.24
67 H 20.368205412831912 84.3233154149921 15.392159156088173 H 0.0 **** 0.06
68 H 21.789325193127354 83.63601331923451 14.569301117090518 H 0.0 **** 0.06
69 H 20.518804842977886 82.55974335524715 15.201845319751065 H 0.0 **** 0.06
70 H 21.590786343482648 83.4295121291411 16.326524376995433 H 0.0 **** 0.06
71 C 67.67497460857015 54.92170856795309 103.81676562374142 C 0.0 **** -0.24
72 H 68.58625017404017 55.00636268459282 103.22463008515106 H 0.0 **** 0.06
73 H 66.90192371630002 55.557619737466624 103.38539656384307 H 0.0 **** 0.06
74 H 67.87601877495848 55.236571911146996 104.84061925974765 H 0.0 **** 0.06
75 H 67.335756134836 53.88592971676508 103.8150473075658 H 0.0 **** 0.06
76 C 75.9711768972306 79.70572620659851 114.91886354588291 C 0.0 **** -0.24
77 H 75.82360824155663 78.73254519068999 114.44920170470931 H 0.0 **** 0.06
78 H 75.32615410279772 79.78901157138972 115.79342348840183 H 0.0 **** 0.06
79 H 75.72280583939602 80.49359155124026 114.20698360872974 H 0.0 **** 0.06
80 H 77.01276877208704 79.8067796042885 115.22393492709548 H 0.0 **** 0.06
81 C 37.23090534332181 79.37667968170717 103.94493859022128 C 0.0 **** -0.24
82 H 37.655537188022834 79.3331602940026 104.94880707381205 H 0.0 **** 0.06
83 H 36.53895076486569 78.54623036601902 103.80676938984308 H 0.0 **** 0.06
84 H 38.032808542816554 79.30998480579308 103.20972568668648 H 0.0 **** 0.06
85 H 36.69868709093544 80.3194044057152 103.81731099970895 H 0.0 **** 0.06
86 C 64.9743576760498 49.628938640946416 76.95511383422414 C 0.0 **** -0.24
87 H 65.74078034593802 48.8568643308827 77.01782330199083 H 0.0 **** 0.06
88 H 64.86436885463868 50.11073149531457 77.92705422109654 H 0.0 **** 0.06
89 H 64.02653456553091 49.17565358097471 76.66371375111717 H 0.0 **** 0.06
90 H 65.26546930216637 50.37083097749505 76.21151733986227 H 0.0 **** 0.06
91 C 110.7735013637681 42.81133362483956 101.10740594149144 C 0.0 **** -0.24
92 H 111.7731680210585 42.85174410861595 100.67455198745301 H 0.0 **** 0.06
93 H 110.05527559698803 43.23166950451264 100.40208858611726 H 0.0 **** 0.06
94 H 110.75450627317034 43.38754211445615 102.03209447771965 H 0.0 **** 0.06
95 H 110.51030192438418 41.775511960154745 101.31885198692333 H 0.0 **** 0.06
96 C 98.26057471318592 57.96886143636169 34.397679995323095 C 0.0 **** -0.24
97 H 97.38831780880767 57.91899439763361 33.744689773272555 H 0.0 **** 0.06
98 H 99.15828916795496 57.74519027988663 33.82118459526858 H 0.0 **** 0.06
99 H 98.15362852218598 57.2414389461961 35.2025265727505 H 0.0 **** 0.06
100 H 98.33920852964388 58.96991644839437 34.82063329977842 H 0.0 **** 0.06
101 C 76.89390458314551 105.69788895692773 84.76255489194085 C 0.0 **** -0.24
102 H 75.998567218646 106.3075094041759 84.87970784657847 H 0.0 **** 0.06
103 H 76.68638903533116 104.87451588708785 84.07946190950003 H 0.0 **** 0.06
104 H 77.19101929353377 105.29980224675893 85.7333436681119 H 0.0 **** 0.06
105 H 77.69962306637251 106.31114126380254 84.35943917720601 H 0.0 **** 0.06
106 C 64.56531692402831 37.90358873415758 57.25421993883168 C 0.0 **** -0.24
107 H 63.62049317158648 38.392789228465915 57.49372983899417 H 0.0 **** 0.06
108 H 65.37334484396558 38.38549011620698 57.804692378721086 H 0.0 **** 0.06
109 H 64.75438158557574 37.983990704942784 56.184690637665994 H 0.0 **** 0.06
110 H 64.5105239993963 36.85128304041331 57.535176334561015 H 0.0 **** 0.06
111 C 29.56649193563949 59.51241896150134 92.47892569419187 C 0.0 **** -0.24
112 H 29.0173827933329 58.64172767213077 92.83782235451798 H 0.0 **** 0.06
113 H 29.839954234537373 59.362661231152714 91.43441051218855 H 0.0 **** 0.06
114 H 30.468779009007875 59.644456770368635 93.07585031785027 H 0.0 **** 0.06
115 H 28.938583052094515 60.39941721168856 92.56643876602095 H 0.0 **** 0.06
116 C 86.7646425386815 61.83783023649988 36.76868960490833 C 0.0 **** -0.24
117 H 87.48475471350679 62.64617299159556 36.89524159022045 H 0.0 **** 0.06
118 H 85.75782477768846 62.216329383925256 36.951031257080274 H 0.0 **** 0.06
119 H 86.98639295664074 61.040141810076705 37.47753294604115 H 0.0 **** 0.06
120 H 86.82802411478639 61.4495580497146 35.752610180314434 H 0.0 **** 0.06
121 C 74.58373043908216 88.713134040907 7.651090588240805 C 0.0 **** -0.24
122 H 73.56321884423778 88.34493902951408 7.544833846201271 H 0.0 **** 0.06
123 H 75.26233017319038 88.06867246420529 7.091395403834213 H 0.0 **** 0.06
124 H 74.86395516024595 88.7075633451833 8.70485436106702 H 0.0 **** 0.06
125 H 74.64592503631684 89.7302511763753 7.263993006140822 H 0.0 **** 0.06
126 C 42.67891775531163 28.606115882240204 50.68610676763143 C 0.0 **** -0.24
127 H 41.89789297448257 28.178805365564756 50.05678728567352 H 0.0 **** 0.06
128 H 43.35167292822101 29.205954035636267 50.07251596052504 H 0.0 **** 0.06
129 H 43.24074218365055 27.803842370334337 51.16396601697629 H 0.0 **** 0.06
130 H 42.22403094694053 29.237425594490645 51.450274341460826 H 0.0 **** 0.06
131 C 64.10040554377505 33.17690397525169 72.86112098420199 C 0.0 **** -0.24
132 H 64.75198113069365 33.820447576386215 72.26978785557947 H 0.0 **** 0.06
133 H 63.63539222690323 33.76225801969423 73.65461531103585 H 0.0 **** 0.06
134 H 64.6878815399323 32.37047897435386 73.30040865275942 H 0.0 **** 0.06
135 H 63.326954471630806 32.75502650746898 72.21912345939069 H 0.0 **** 0.06
136 C 37.12073602702988 107.651187705681 23.569885910769756 C 0.0 **** -0.24
137 H 36.52526055884056 108.2863976733313 22.915442537353215 H 0.0 **** 0.06
138 H 36.458478694642224 107.03863036373417 24.183134471530536 H 0.0 **** 0.06
139 H 37.74140311938342 108.27303252573648 24.214459649287278 H 0.0 **** 0.06
140 H 37.75755959641336 107.00447094319037 22.966634626110277 H 0.0 **** 0.06
141 C 108.80894859085272 105.70881268993026 34.51111764244604 C 0.0 **** -0.24
142 H 109.86317896046828 105.43596162156598 34.55857907434684 H 0.0 **** 0.06
143 H 108.37618467031436 105.32642514979972 33.58617808947389 H 0.0 **** 0.06
144 H 108.71263496652499 106.7934102898819 34.53716745998251 H 0.0 **** 0.06
145 H 108.28387209654596 105.2769046606316 35.3637694835345 H 0.0 **** 0.06
146 C 34.22072285995917 24.06669018960281 17.767026501504773 C 0.0 **** -0.24
147 H 34.66679678877105 23.273737077621092 17.167087877013785 H 0.0 **** 0.06
148 H 33.63120464629854 24.720536605726465 17.122986746774046 H 0.0 **** 0.06
149 H 35.00856263492972 24.645272461699108 18.248576046561567 H 0.0 **** 0.06
150 H 33.57555888964728 23.627029346412257 18.527136831269388 H 0.0 **** 0.06
151 C 103.75863819185568 99.46444615539889 25.307670961638138 C 0.0 **** -0.24
152 H 103.4980544010219 99.80124176941612 26.310540698157553 H 0.0 **** 0.06
153 H 102.88236661836496 99.0187084393865 24.83501771699906 H 0.0 **** 0.06
154 H 104.55503369720364 98.72265336641976 25.3689215236773 H 0.0 **** 0.06
155 H 104.09788874252996 100.314233274738 24.715404234968375 H 0.0 **** 0.06
156 C 97.2137358710678 76.78243993324244 88.00396887853645 C 0.0 **** -0.24
157 H 98.25236841736836 76.71607698751555 87.6814951536528 H 0.0 **** 0.06
158 H 96.93656966007546 75.86631639091831 88.52638592017442 H 0.0 **** 0.06
159 H 96.57058001974048 76.91456046570681 87.13403286423625 H 0.0 **** 0.06
160 H 97.0962159947008 77.63323933220772 88.67505115514732 H 0.0 **** 0.06
161 C 17.759173263748522 3.2375145066869777 61.18888610863277 C 0.0 **** -0.24
162 H 16.723140510334844 2.92004325105229 61.30026838422728 H 0.0 **** 0.06
163 H 18.079845038187017 3.7569133028342527 62.09243772401123 H 0.0 **** 0.06
164 H 17.842596635018964 3.908887641710411 60.33381379393532 H 0.0 **** 0.06
165 H 18.39212843566301 2.3647220656345986 61.02771822652085 H 0.0 **** 0.06
166 C 59.19664069552414 95.85504295704004 102.25155627262552 C 0.0 **** -0.24
167 H 59.289221137031944 96.1202069365682 103.30533754158392 H 0.0 **** 0.06
168 H 58.7839333992527 94.84922129218197 102.16669464737382 H 0.0 **** 0.06
169 H 60.178679302849446 95.88617097692045 101.78157108335935 H 0.0 **** 0.06
170 H 58.53357969539073 96.56342931856562 101.75599419106678 H 0.0 **** 0.06
171 C 45.31711686638985 27.972311184211094 78.52928067806099 C 0.0 **** -0.24
172 H 46.054237781056855 27.423122683628733 79.11503464601222 H 0.0 **** 0.06
173 H 45.204895426385804 28.97747477200555 78.9359002621452 H 0.0 **** 0.06
174 H 44.35927463609144 27.454014981017664 78.57200376522687 H 0.0 **** 0.06
175 H 45.650550169597466 28.03551164495228 77.4931909467328 H 0.0 **** 0.06
176 C 115.3835920362755 114.95940622113113 22.744357004820216 C 0.0 **** -0.24
177 H 115.14127060026493 113.9411585045479 22.438151281990855 H 0.0 **** 0.06
178 H 116.20151340776135 114.93692262990501 23.464722260995643 H 0.0 **** 0.06
179 H 114.50799728784526 115.41740759511237 23.20440867785655 H 0.0 **** 0.06
180 H 115.68207560123179 115.53956903077767 21.87217724067746 H 0.0 **** 0.06
181 C 81.28002289173477 15.925471230042227 30.344742228603906 C 0.0 **** -0.24
182 H 80.54709595019452 15.966824732471412 29.538052672003886 H 0.0 **** 0.06
183 H 81.0913321219056 15.047038400512129 30.96232587063642 H 0.0 **** 0.06
184 H 81.19798730405128 16.824118027384106 30.95579544792693 H 0.0 **** 0.06
185 H 82.28208887016899 15.863941466608317 29.92122035035044 H 0.0 **** 0.06
186 C 40.27015101993828 47.69438416712288 69.45978863591276 C 0.0 **** -0.24
187 H 39.385911572191844 47.14267250892678 69.78096286728737 H 0.0 **** 0.06
188 H 40.11037948386962 48.76102133826424 69.62161645718507 H 0.0 **** 0.06
189 H 40.44830061525903 47.51056613039813 68.40090028530963 H 0.0 **** 0.06
190 H 41.13383417632235 47.36408644286067 70.03644950145107 H 0.0 **** 0.06
191 C 86.02810665023236 94.71269184957421 11.401144581031986 C 0.0 **** -0.24
192 H 85.96032294842809 93.6301977117522 11.50736487842508 H 0.0 **** 0.06
193 H 87.0658978435844 95.02461132534228 11.525493853397307 H 0.0 **** 0.06
194 H 85.40983695016794 95.19229393100201 12.15991488966472 H 0.0 **** 0.06
195 H 85.67793509334572 95.00303019072524 10.410031288482571 H 0.0 **** 0.06
196 C 24.891986041976253 88.79689873748694 63.44564656825896 C 0.0 **** -0.24
197 H 24.887224324599146 89.74471089810893 62.90676212974365 H 0.0 **** 0.06
198 H 24.167385164076364 88.83868572396312 64.25970704583605 H 0.0 **** 0.06
199 H 25.887509325885702 88.61711621607014 63.85399289118674 H 0.0 **** 0.06
200 H 24.628268472619624 87.98968402447497 62.76324760796293 H 0.0 **** 0.06
201 C 101.31556776396755 14.612656654841686 39.70669125858831 C 0.0 **** -0.24
202 H 100.30263751106466 14.372202363708766 39.38397157278261 H 0.0 **** 0.06
203 H 101.43399654927538 14.34791729181049 40.75744701679622 H 0.0 **** 0.06
204 H 101.49392006197942 15.680274499699465 39.57826789293694 H 0.0 **** 0.06
205 H 102.03077652843305 14.049646849603391 39.106199455755984 H 0.0 **** 0.06
206 C 77.80718439045674 6.962633033718475 104.90070854481675 C 0.0 **** -0.24
207 H 78.51012089113513 7.725538290882412 105.23656246933479 H 0.0 **** 0.06
208 H 76.84705498834904 7.111186924377392 105.393721904509 H 0.0 **** 0.06
209 H 78.19638201790241 5.975511384467126 105.15131192771085 H 0.0 **** 0.06
210 H 77.67868885239736 7.039098190025328 103.82103269565536 H 0.0 **** 0.06
211 C 103.21288627749033 43.74064706515952 61.098879499200024 C 0.0 **** -0.24
212 H 104.10543530117036 43.75297020199238 61.72456500813317 H 0.0 **** 0.06
213 H 103.14664348936884 44.67542628218942 60.542887027356954 H 0.0 **** 0.06
214 H 102.32998195890127 43.62770193265237 61.72790836810387 H 0.0 **** 0.06
215 H 103.26967879077267 42.90557153130359 60.400502494755784 H 0.0 **** 0.06
216 C 61.646983660163585 63.628210092709345 116.45725409297009 C 0.0 **** -0.24
217 H 61.168036727349374 63.42348250793422 117.41456668374235 H 0.0 **** 0.06
218 H 62.53412350895019 63.0033717587885 116.35317758134012 H 0.0 **** 0.06
219 H 61.93395491652984 64.67927886986925 116.41196668054725 H 0.0 **** 0.06
220 H 60.949787922380324 63.40732343048558 115.64808338192364 H 0.0 **** 0.06
221 C 11.751412070378311 62.18760266187266 108.59696550797008 C 0.0 **** -0.24
222 H 11.362081878830146 62.8871462381874 109.33655238044139 H 0.0 **** 0.06
223 H 10.920820336549895 61.719367400955235 108.06804668371126 H 0.0 **** 0.06
224 H 12.341915334277932 61.420466973760455 109.09835031450818 H 0.0 **** 0.06
225 H 12.380136400386569 62.72309412749212 107.88609805877653 H 0.0 **** 0.06
226 C 31.517128226405532 116.41490893278922 88.49004958277192 C 0.0 **** -0.24
227 H 32.311559694670564 116.48945035436321 87.74810340589761 H 0.0 **** 0.06
228 H 30.814514559498804 117.23704355794001 88.35373868316412 H 0.0 **** 0.06
229 H 31.948802423007493 116.46672164079501 89.48957987031196 H 0.0 **** 0.06
230 H 30.994906855122935 115.46587746867192 88.36907818368871 H 0.0 **** 0.06
231 C 40.563227325309725 15.420392496302355 38.89897427482714 C 0.0 **** -0.24
232 H 39.819236050512586 14.812728212842984 39.41427135317409 H 0.0 **** 0.06
233 H 40.480566756239 16.454828238250485 39.23296216510329 H 0.0 **** 0.06
234 H 40.39113626874612 15.371023561309954 37.82377320422785 H 0.0 **** 0.06
235 H 41.56069100001204 15.04292335265302 39.12548975930977 H 0.0 **** 0.06
236 C 58.9628381018309 12.59268793619006 32.13386014867916 C 0.0 **** -0.24
237 H 58.616731099291826 12.159497242068198 33.07101520061104 H 0.0 **** 0.06
238 H 60.010681782535016 12.87940425685781 32.23071272906725 H 0.0 **** 0.06
239 H 58.36519911764145 13.473210034782568 31.897192730154586 H 0.0 **** 0.06
240 H 58.859329639683125 11.858832487691672 31.33415008597541 H 0.0 **** 0.06
241 C 59.30768059005058 54.13202414494071 76.52524987564243 C 0.0 **** -0.24
242 H 60.3499818423831 53.8528523227154 76.68194449452398 H 0.0 **** 0.06
243 H 58.89430779790695 53.545426682794655 75.70334875246613 H 0.0 **** 0.06
244 H 59.248504694955045 55.1918536672982 76.28165298557997 H 0.0 **** 0.06
245 H 58.73902451648166 53.93440977363385 77.43364503553994 H 0.0 **** 0.06
246 C 27.712853202946178 14.336483480398897 88.89656981018308 C 0.0 **** -0.24
247 H 28.748815409013872 14.624684254972351 89.07523595697887 H 0.0 **** 0.06
248 H 27.048590903387463 15.10199603329653 89.29780054429659 H 0.0 **** 0.06
249 H 27.51079911437759 13.38478021145039 89.38676357393621 H 0.0 **** 0.06
250 H 27.544277374382915 14.235377570452727 87.82382621234842 H 0.0 **** 0.06
251 C 28.05776210133496 116.62376527147717 111.42575164900876 C 0.0 **** -0.24
252 H 27.772900508420094 116.97413266982838 112.41730773182998 H 0.0 **** 0.06
253 H 27.17087462842744 116.55746418069816 110.7957193247353 H 0.0 **** 0.06
254 H 28.520128351730648 115.63906587334452 111.50784080893028 H 0.0 **** 0.06
255 H 28.767551957991913 117.32224295208894 110.98322908538537 H 0.0 **** 0.06
256 C 46.13503607625908 92.41080445618144 28.4253854724057 C 0.0 **** -0.24
257 H 46.336245234918756 91.72551594245311 27.6028792981095 H 0.0 **** 0.06
258 H 46.2004135274545 91.87236615612795 29.370937142179883 H 0.0 **** 0.06
259 H 45.13494600226107 92.82916269445644 28.313157240595807 H 0.0 **** 0.06
260 H 46.86901937415879 93.21696180587378 28.414952465033394 H 0.0 **** 0.06
261 C 48.89281915315769 91.66058587055204 49.2398335945889 C 0.0 **** -0.24
262 H 48.86505113222012 92.16544226321753 48.27444098125642 H 0.0 **** 0.06
263 H 49.875904201811636 91.21489482234347 49.38859242980266 H 0.0 **** 0.06
264 H 48.1325927658487 90.88099767701061 49.264347862767124 H 0.0 **** 0.06
265 H 48.69782893495375 92.3833650760341 50.032614805524815 H 0.0 **** 0.06
266 C 15.729792571392807 73.76026074266343 96.30546092431399 C 0.0 **** -0.24
267 H 15.735647108302715 74.74764038581671 95.84318269426788 H 0.0 **** 0.06
268 H 14.726294937794705 73.33834482754037 96.24683118918037 H 0.0 **** 0.06
269 H 16.027821997613643 73.84740814039466 97.34981752006169 H 0.0 **** 0.06
270 H 16.430095542988113 73.10925906082707 95.78104545021867 H 0.0 **** 0.06
271 C 107.02486424084842 101.95260947881377 104.86954234019188 C 0.0 **** -0.24
272 H 107.2080808464406 100.99123895087655 105.34918005169865 H 0.0 **** 0.06
273 H 105.98210491250444 102.00874197856172 104.55680426681636 H 0.0 **** 0.06
274 H 107.67155196159086 102.0520437033949 103.99770359508562 H 0.0 **** 0.06
275 H 107.23825761956053 102.75630921832129 105.573949136133 H 0.0 **** 0.06
276 C 38.85924829970918 34.441274509735365 74.63382130460383 C 0.0 **** -0.24
277 H 39.124704654492575 35.1477570380178 75.41959434028541 H 0.0 **** 0.06
278 H 39.58297281522711 34.5113407236949 73.82204640281304 H 0.0 **** 0.06
279 H 37.8642884398639 34.675864016021364 74.25561421687732 H 0.0 **** 0.06
280 H 38.86459743914078 33.42907770056496 75.03933212340843 H 0.0 **** 0.06
281 C 30.928616768952367 42.505067815062645 115.57391938128272 C 0.0 **** -0.24
282 H 31.793866705782904 41.85213224009802 115.45761516539562 H 0.0 **** 0.06
283 H 30.528689090445653 42.40117313281649 116.58248207269916 H 0.0 **** 0.06
284 H 30.163758143514343 42.227301600388124 114.84786273811534 H 0.0 **** 0.06
285 H 31.229193914564263 43.53965302745967 115.40573842194338 H 0.0 **** 0.06
286 C 101.39945176662192 69.06212362228405 115.55609786102832 C 0.0 **** -0.24
287 H 101.68905498466924 69.63987304388104 116.43336549321538 H 0.0 **** 0.06
288 H 102.2838335003031 68.84497034907386 114.9559633357373 H 0.0 **** 0.06
289 H 100.68841412205063 69.63741331447255 114.96165164174039 H 0.0 **** 0.06
290 H 100.93686864587309 68.12775234046012 115.87215649653785 H 0.0 **** 0.06
291 C 71.71192931831547 46.290150889378424 77.92361201830286 C 0.0 **** -0.24
292 H 72.59225146867655 46.42618169826477 77.29526855601236 H 0.0 **** 0.06
293 H 71.71831490901104 45.283880337605694 78.34367132645292 H 0.0 **** 0.06
294 H 70.81291209023132 46.42756676061089 77.32176906663409 H 0.0 **** 0.06
295 H 71.72542751462225 47.02182356507814 78.73104425887931 H 0.0 **** 0.06
296 C 22.987397164685973 103.39002456092996 115.28483832955993 C 0.0 **** -0.24
297 H 22.14153214315761 103.51771519440686 115.96006230021538 H 0.0 **** 0.06
298 H 22.66638422007085 102.83863457617966 114.40128373653187 H 0.0 **** 0.06
299 H 23.77668045017397 102.83501377612222 115.79261478844614 H 0.0 **** 0.06
300 H 23.36516617602535 104.36784571409294 114.98581602136142 H 0.0 **** 0.06
301 C 9.191388663678737 90.31315059061606 73.75877325439848 C 0.0 **** -0.24
302 H 9.510543987521572 91.01691086736727 72.98857169129113 H 0.0 **** 0.06
303 H 9.914757770869244 89.50033667908545 73.82880673012662 H 0.0 **** 0.06
304 H 8.213230111587393 89.9088761067101 73.49783654457525 H 0.0 **** 0.06
305 H 9.128956787195449 90.82749522937905 74.71684043178934 H 0.0 **** 0.06
306 C 29.075066560113072 115.1397349311111 64.83260946014352 C 0.0 **** -0.24
307 H 28.660191017263628 115.97996278217126 65.38822653402099 H 0.0 **** 0.06
308 H 30.113417870901287 114.9853939312888 65.12885340077506 H 0.0 **** 0.06
309 H 29.02969071891468 115.35128658946815 63.76480759136376 H 0.0 **** 0.06
310 H 28.498525041472135 114.2401188005241 65.0494612454822 H 0.0 **** 0.06
311 C 72.46942538865403 79.0087740773306 62.5994658464279 C 0.0 **** -0.24
312 H 73.4364565890912 79.23690754955356 62.15028014830266 H 0.0 **** 0.06
313 H 71.68036532433126 79.50084534763062 62.02978864521658 H 0.0 **** 0.06
314 H 72.45336728598426 79.36769086736211 63.62827914706144 H 0.0 **** 0.06
315 H 72.30896455272648 77.9306885255317 62.58710331149148 H 0.0 **** 0.06
316 C 29.49576429946446 77.51330814780522 93.70069027769762 C 0.0 **** -0.24
317 H 28.83066084839546 77.26469952201845 94.5272107369367 H 0.0 **** 0.06
318 H 30.167277598669337 78.31641506026915 94.0034923784969 H 0.0 **** 0.06
319 H 28.904357738192267 77.83689775218764 92.84368265768288 H 0.0 **** 0.06
320 H 30.07943161239794 76.6343388562565 93.42680813681642 H 0.0 **** 0.06
321 C 51.459316741332685 30.346786922542364 50.39498000515003 C 0.0 **** -0.24
322 H 51.209723483169064 30.89823152217842 49.48857666461957 H 0.0 **** 0.06
323 H 52.19822314614342 30.908014502029985 50.96895825227965 H 0.0 **** 0.06
324 H 51.869214063280985 29.373660687493633 50.12729474809391 H 0.0 **** 0.06
325 H 50.56059896172073 30.210288976225023 50.99577413023106 H 0.0 **** 0.06
326 C 25.69075801124974 58.81079868756842 25.346724589434444 C 0.0 **** -0.24
327 H 25.95297614290218 59.744368258870026 25.84369885970778 H 0.0 **** 0.06
328 H 26.419142516605916 58.59936060351052 24.56276157017441 H 0.0 **** 0.06
329 H 24.69800818836184 58.90019975253168 24.90649037859943 H 0.0 **** 0.06
330 H 25.693715977964672 57.99833554763785 26.07463802519699 H 0.0 **** 0.06
331 C 108.94957214771478 47.350635971847396 88.27891013782016 C 0.0 **** -0.24
332 H 109.21673527559535 47.62241654863496 87.2577141990958 H 0.0 **** 0.06
333 H 108.42752411450215 46.394135792292786 88.27556585440527 H 0.0 **** 0.06
334 H 108.30072628451268 48.11883111617166 88.70052047504055 H 0.0 **** 0.06
335 H 109.85527975994792 47.26939281961643 88.88150979654822 H 0.0 **** 0.06
336 C 90.63188011616842 68.47659291237574 61.76285394044496 C 0.0 **** -0.24
337 H 89.9916802021344 68.81590301813418 60.947768202617446 H 0.0 **** 0.06
338 H 90.03110343770894 68.33667481407076 62.66240291981172 H 0.0 **** 0.06
339 H 91.40367642256965 69.22183684694079 61.95290617281132 H 0.0 **** 0.06
340 H 91.09918958040382 67.5317967255391 61.48712412003679 H 0.0 **** 0.06
341 C 9.558110663910924 85.04873477843108 76.84241121888124 C 0.0 **** -0.24
342 H 8.930114561986898 85.94001701770412 76.82676245651339 H 0.0 **** 0.06
343 H 9.12817205751972 84.31330040223901 77.52324240535245 H 0.0 **** 0.06
344 H 10.55888190562618 85.31591758150836 77.18050911402707 H 0.0 **** 0.06
345 H 9.614307238262768 84.62640061995285 75.83989255082054 H 0.0 **** 0.06
346 C 96.69387239651701 71.06007738977269 52.546291948416524 C 0.0 **** -0.24
347 H 97.25799519110268 70.2393380775184 52.989899263657605 H 0.0 **** 0.06
348 H 96.8363555702067 71.0555971463273 51.46555217838204 H 0.0 **** 0.06
349 H 97.04741691951585 72.00573071091927 52.95620045519843 H 0.0 **** 0.06
350 H 95.63464496716387 70.93678597344126 52.775242883606325 H 0.0 **** 0.06
351 C 67.11446707439094 65.30366190494323 114.13995961242713 C 0.0 **** -0.24
352 H 68.09501340061604 64.82829388119114 114.1179573538628 H 0.0 **** 0.06
353 H 66.8197229948457 65.47945167450541 115.17543919192968 H 0.0 **** 0.06
354 H 66.38430036845853 64.6520250047491 113.65969206595156 H 0.0 **** 0.06
355 H 67.1598528450346 66.25321067009673 113.6082264619092 H 0.0 **** 0.06
356 C 71.88279404550806 37.03994139468546 88.06980141346872 C 0.0 **** -0.24
357 H 71.85010516096168 37.516195563601684 89.04916667075997 H 0.0 **** 0.06
358 H 72.66992565732448 37.497148999590344 87.47061282025257 H 0.0 **** 0.06
359 H 70.9226752514596 37.17050359677088 87.56946508425995 H 0.0 **** 0.06
360 H 72.088167284989 35.9762299648836 88.18906070722883 H 0.0 **** 0.06
361 C 2.4758927542748665 33.79133063249736 33.390953831916676 C 0.0 **** -0.24
362 H 1.8206708663666973 33.49547479320333 34.20967448631839 H 0.0 **** 0.06
363 H 2.9353523639845207 32.90458629123927 32.95546531820747 H 0.0 **** 0.06
364 H 3.2532041383708474 34.45499024439175 33.7689655577897 H 0.0 **** 0.06
365 H 1.8932661055979452 34.31117728369591 32.62957568174329 H 0.0 **** 0.06
366 C 46.87359683449117 48.492241357369835 104.2734015679003 C 0.0 **** -0.24
367 H 47.071531969543514 48.6065685495841 103.20718489353442 H 0.0 **** 0.06
368 H 47.24150238613461 47.52311648237435 104.6086796334067 H 0.0 **** 0.06
369 H 45.79974196274446 48.55626669884509 104.45264584313543 H 0.0 **** 0.06
370 H 47.38080301660452 49.284753582063274 104.82357265323529 H 0.0 **** 0.06
371 C 45.04745571666238 34.47213145532794 100.84201430705565 C 0.0 **** -0.24
372 H 45.41097639922664 33.85474360929606 100.02057476285745 H 0.0 **** 0.06
373 H 45.73048375756452 35.307069366087454 100.99955276887223 H 0.0 **** 0.06
374 H 44.99015638198356 33.871008097506916 101.74998705721396 H 0.0 **** 0.06
375 H 44.05591352876377 34.85428793333365 100.59708463482431 H 0.0 **** 0.06
376 C 109.97480385904373 41.10260128529739 80.14010980436234 C 0.0 **** -0.24
377 H 109.06367786804532 40.83189355796007 79.60708476927363 H 0.0 **** 0.06
378 H 109.98561318548673 42.17815499394108 80.31797315241892 H 0.0 **** 0.06
379 H 110.84135327370836 40.8246368708162 79.54045753735289 H 0.0 **** 0.06
380 H 110.00802606111557 40.57595242199669 81.09363966804708 H 0.0 **** 0.06
381 C 104.19491345542494 57.90473795176189 5.858264359620065 C 0.0 **** -0.24
382 H 103.33639694729828 57.285457733065186 5.600793373734717 H 0.0 **** 0.06
383 H 104.4829676818224 58.50343457915028 4.9935209643604 H 0.0 **** 0.06
384 H 105.02860144191948 57.26603444053933 6.152155842347085 H 0.0 **** 0.06
385 H 103.93294549373508 58.56368382832903 6.68603792817531 H 0.0 **** 0.06
386 C 67.53458759780204 13.76232251578574 62.66324459427187 C 0.0 **** -0.24
387 H 68.00477484972117 14.11388677905856 63.581322722538886 H 0.0 **** 0.06
388 H 68.09629514293067 12.917222475442315 62.26800619240231 H 0.0 **** 0.06
389 H 67.52473574589553 14.569094812172494 61.92942142228463 H 0.0 **** 0.06
390 H 66.51101149104306 13.452640586576422 62.87564764948209 H 0.0 **** 0.06
391 C 21.924410391029085 16.82257992231297 66.16420735857872 C 0.0 **** -0.24
392 H 21.003141614974894 17.406657027011335 66.16512750457099 H 0.0 **** 0.06
393 H 22.431253022519428 16.94676462159893 65.20664861986117 H 0.0 **** 0.06
394 H 21.687261870388156 15.77050301321185 66.31693137332903 H 0.0 **** 0.06
395 H 22.574686651903363 17.17033261024619 66.967221585146 H 0.0 **** 0.06
396 C 2.50807524968144 59.3231263390262 14.277858644192861 C 0.0 **** -0.24
397 H 3.157459996093337 59.57463752499723 15.116797604361011 H 0.0 **** 0.06
398 H 2.891891070209681 59.78846661046413 13.369907753216808 H 0.0 **** 0.06
399 H 1.5008522531213089 59.68862752129843 14.475761744308386 H 0.0 **** 0.06
400 H 2.4828258133953796 58.24103656153994 14.149600548543958 H 0.0 **** 0.06
401 C 108.91186536836841 38.76210636395625 72.12135280655835 C 0.0 **** -0.24
402 H 108.71068122977249 38.570168781087546 73.17521990593102 H 0.0 **** 0.06
403 H 109.6218652856221 38.02458217698374 71.7471748363152 H 0.0 **** 0.06
404 H 109.33088598228454 39.7614243873104 72.00820195312559 H 0.0 **** 0.06
405 H 107.98176509033715 38.69183629218631 71.55565353347583 H 0.0 **** 0.06
406 C 108.5612394472725 52.3879553307945 10.524031461311807 C 0.0 **** -0.24
407 H 108.0660729197441 53.347268400922644 10.375598062009601 H 0.0 **** 0.06
408 H 108.69489919247064 51.89573192343892 9.559671428306515 H 0.0 **** 0.06
409 H 107.94867905144918 51.760031242191786 11.170102662850724 H 0.0 **** 0.06
410 H 109.53440063423523 52.548908679166956 10.988480943591824 H 0.0 **** 0.06
411 C 103.7118765596754 1.044089194176081 56.47683278558267 C 0.0 **** -0.24
412 H 102.77703329985914 1.1144690155092576 55.92117308853247 H 0.0 **** 0.06
413 H 104.50379113112348 1.5442439426085457 55.91952901654409 H 0.0 **** 0.06
414 H 103.97224666093416 -0.005241027856982328 56.61757188856964 H 0.0 **** 0.06
415 H 103.59289197626214 1.5221046060407275 57.44915726762363 H 0.0 **** 0.06
416 C 36.797641166500945 17.155590029921314 94.2413819720673 C 0.0 **** -0.24
417 H 37.06482030923596 18.106906649997626 94.70010398432714 H 0.0 **** 0.06
418 H 35.83039592655154 17.249253534877255 93.74892721669801 H 0.0 **** 0.06
419 H 36.7410516769391 16.385079637745605 95.01034642889545 H 0.0 **** 0.06
420 H 37.55468226258854 16.880701704083265 93.50697258464425 H 0.0 **** 0.06
421 C 61.35746314150645 21.062280119386106 44.04128688264754 C 0.0 **** -0.24
422 H 61.95498809744098 20.633754586857666 43.23651189939906 H 0.0 **** 0.06
423 H 60.42707433850472 20.50289706745173 44.13898662835118 H 0.0 **** 0.06
424 H 61.13316794804741 22.103517049506696 43.8114864481137 H 0.0 **** 0.06
425 H 61.91501360766244 21.007274059990227 44.97673694859529 H 0.0 **** 0.06
426 C 72.61112597468974 82.82736979858842 25.293979679740687 C 0.0 **** -0.24
427 H 71.94886604532459 82.08666509772777 25.74224110042428 H 0.0 **** 0.06
428 H 72.15970514893655 83.81650694148402 25.378726293848786 H 0.0 **** 0.06
429 H 72.76455699082692 82.58726642468605 24.242293315825975 H 0.0 **** 0.06
430 H 73.5685982929092 82.81895731051122 25.813186629166694 H 0.0 **** 0.06
431 C 94.99706020523874 76.09222507655846 92.68161221525233 C 0.0 **** -0.24
432 H 95.60701987086506 75.20643642532508 92.50691652550125 H 0.0 **** 0.06
433 H 94.54836472287204 76.03350088753604 93.67382331483606 H 0.0 **** 0.06
434 H 94.20962685053121 76.14544093511304 91.92940361100068 H 0.0 **** 0.06
435 H 95.62252478040577 76.98222361659035 92.61825936504741 H 0.0 **** 0.06
436 C 33.93520977250093 62.62855994847996 31.476261575791042 C 0.0 **** -0.24
437 H 34.36450320211633 63.29058141193798 32.22803925379861 H 0.0 **** 0.06
438 H 34.7125314723855 62.320175579308 30.77626865319202 H 0.0 **** 0.06
439 H 33.148141632507944 63.15572297322274 30.93612185946172 H 0.0 **** 0.06
440 H 33.514587203353905 61.74944282758963 31.9645122395238 H 0.0 **** 0.06
441 C 50.45161026802653 27.53970302526446 111.46801301278627 C 0.0 **** -0.24
442 H 50.11108673947333 27.656652601019033 110.43971080683126 H 0.0 **** 0.06
443 H 51.39769462487799 26.99659251726993 111.47747076256245 H 0.0 **** 0.06
444 H 49.70670072911635 26.982641499376697 112.03625169548998 H 0.0 **** 0.06
445 H 50.592206430203724 28.5219868011786 111.9193690625064 H 0.0 **** 0.06
446 C 13.242650538816921 63.810624748212724 94.57684433749338 C 0.0 **** -0.24
447 H 13.139388588654139 63.3599010150452 95.56367158914867 H 0.0 **** 0.06
448 H 12.845757667324808 63.13013588169884 93.82297235673278 H 0.0 **** 0.06
449 H 14.296375130922861 64.00398144587339 94.37418285403533 H 0.0 **** 0.06
450 H 12.688445673008847 64.74923412363043 94.5467208139037 H 0.0 **** 0.06
451 C 16.003808514946 74.32177947304197 17.50746956665921 C 0.0 **** -0.24
452 H 15.412166865363702 75.09911537943378 17.023043037486218 H 0.0 **** 0.06
453 H 15.487806059673119 73.97829869583973 18.404473708647743 H 0.0 **** 0.06
454 H 16.97911019215158 74.72377095834179 17.779336021602973 H 0.0 **** 0.06
455 H 16.133861300912855 73.48558518149184 16.820261911326725 H 0.0 **** 0.06
456 C 32.09927935897258 77.87133374419534 102.82625500330667 C 0.0 **** -0.24
457 H 31.175109801839852 77.54988325816646 103.30680697171707 H 0.0 **** 0.06
458 H 31.87162668653818 78.61653495320826 102.06342314775083 H 0.0 **** 0.06
459 H 32.58515616736864 77.01347464522189 102.36211233188644 H 0.0 **** 0.06
460 H 32.763962415042386 78.30601028354431 103.57296694198322 H 0.0 **** 0.06
461 C 27.721330988456273 21.325541431548405 45.729384408520446 C 0.0 **** -0.24
462 H 28.55823208084506 20.84486489400144 45.22427698914211 H 0.0 **** 0.06
463 H 26.945998009368253 20.586249204252216 45.93126496639067 H 0.0 **** 0.06
464 H 27.316111137830802 22.112236318078814 45.092637191188174 H 0.0 **** 0.06
465 H 28.064273246747845 21.758966967703802 46.66867023054047 H 0.0 **** 0.06
466 C 36.77265234019342 96.58247571858473 95.90376204890981 C 0.0 **** -0.24
467 H 36.132678548536205 95.72587586892456 96.11696675924014 H 0.0 **** 0.06
468 H 36.466288898787866 97.42758470845135 96.52029932040261 H 0.0 **** 0.06
469 H 36.68207041812269 96.84910837546241 94.85059353066345 H 0.0 **** 0.06
470 H 37.808526141061236 96.32596322909328 96.1254482448254 H 0.0 **** 0.06
471 C 38.18245749328733 90.68335103650347 7.504423023510174 C 0.0 **** -0.24
472 H 37.978748178949644 91.75005925018723 7.599144092657179 H 0.0 **** 0.06
473 H 38.00237629897863 90.19328730311295 8.461410110227852 H 0.0 **** 0.06
474 H 39.220877744727176 90.53665030355421 7.20998771594274 H 0.0 **** 0.06
475 H 37.52568106931594 90.25456910792789 6.747355809278515 H 0.0 **** 0.06
476 C 67.8289797803343 97.28373280127579 69.87461046750644 C 0.0 **** -0.24
477 H 68.63450654824453 96.77283107563136 69.34739798343833 H 0.0 **** 0.06
478 H 68.03675986096448 97.28186483879767 70.94515938313583 H 0.0 **** 0.06
479 H 66.88687927758178 96.76756290388283 69.68642619553361 H 0.0 **** 0.06
480 H 67.75740621844318 98.31194005889199 69.52003181138952 H 0.0 **** 0.06
481 C 69.65547010349269 58.59633507114136 45.45392972591921 C 0.0 **** -0.24
482 H 69.65110281624058 57.56272811794394 45.10688996045948 H 0.0 **** 0.06
483 H 68.89096114942927 59.16102048232202 44.919414556973294 H 0.0 **** 0.06
484 H 70.63355093605725 59.03865602058989 45.265693156960594 H 0.0 **** 0.06
485 H 69.44425065653189 58.62061530336472 46.522473462124935 H 0.0 **** 0.06
486 C 68.13449063181392 101.03742034167306 25.16631844223801 C 0.0 **** -0.24
487 H 67.82787647130252 101.68797751098904 25.985401522962604 H 0.0 **** 0.06
488 H 67.68902945046568 100.05213431740509 25.299230748603946 H 0.0 **** 0.06
489 H 69.22023598807866 100.94890541747966 25.160486281276974 H 0.0 **** 0.06
490 H 67.80045881939958 101.4639600030741 24.220238287811725 H 0.0 **** 0.06
491 C 105.00780617292065 48.85352559180983 52.32268129787653 C 0.0 **** -0.24
492 H 104.78233923195324 49.87500747035233 52.01707800996891 H 0.0 **** 0.06
493 H 104.54096607172852 48.15505607959852 51.62657300378618 H 0.0 **** 0.06
494 H 104.6192690691384 48.68028675377721 53.32682932379649 H 0.0 **** 0.06
495 H 106.08677010120596 48.70274942058457 52.319036616798 H 0.0 **** 0.06
496 C 112.0884765960368 106.87800859062213 31.54538454374758 C 0.0 **** -0.24
497 H 112.6394833374781 105.93823189700737 31.58565016369758 H 0.0 **** 0.06
498 H 112.78932314520927 107.71151108910391 31.58825229794789 H 0.0 **** 0.06
499 H 111.40408955644665 106.9343638997392 32.391498240442 H 0.0 **** 0.06
500 H 111.52103551662142 106.92711692615794 30.61555229570004 H 0.0 **** 0.06
501 C 52.33921158107094 45.41777477094172 47.622982553149285 C 0.0 **** -0.24
502 H 52.22516105167344 45.013809154890964 48.628641138706854 H 0.0 **** 0.06
503 H 52.83028183293189 44.67984092938684 46.98884881156329 H 0.0 **** 0.06
504 H 52.94372017690554 46.32439274692672 47.661908314150224 H 0.0 **** 0.06
505 H 51.357060972533475 45.65376220292376 47.21287024833211 H 0.0 **** 0.06
506 C 88.04172192771469 54.79185312365601 116.28502420368636 C 0.0 **** -0.24
507 H 88.75228647785266 55.47088143589073 115.81364055815214 H 0.0 **** 0.06
508 H 87.50831896879134 54.233152030707885 115.515701539367 H 0.0 **** 0.06
509 H 87.32921575929907 55.36567866570192 116.87721517387263 H 0.0 **** 0.06
510 H 88.57770747054533 54.09798559354553 116.9328268973955 H 0.0 **** 0.06
511 C 15.696171135672387 82.69525502475562 99.39492099767037 C 0.0 **** -0.24
512 H 16.71921854993019 82.80680551994351 99.75516603044386 H 0.0 **** 0.06
513 H 15.0452228771818 82.42224944767236 100.22606860261362 H 0.0 **** 0.06
514 H 15.662519535726489 81.91500939161784 98.63523538817762 H 0.0 **** 0.06
515 H 15.358980238493928 83.6375177505987 98.96353811294111 H 0.0 **** 0.06
516 C 95.82976896648839 36.66232296825634 44.70803862491363 C 0.0 **** -0.24
517 H 95.30474564642128 37.18388197927256 43.90787634959116 H 0.0 **** 0.06
518 H 95.42291890147715 36.97350651439491 45.67112735132906 H 0.0 **** 0.06
519 H 96.89129173687732 36.906497374584625 44.665727389846495 H 0.0 **** 0.06
520 H 95.69811094065923 35.58694682326069 44.58903330456906 H 0.0 **** 0.06
521 C 91.20277746495807 30.64022785465572 33.35836025457945 C 0.0 **** -0.24
522 H 90.9534655490643 29.917519802949585 34.135502213227966 H 0.0 **** 0.06
523 H 92.28587491589809 30.708875193795066 33.26042977277956 H 0.0 **** 0.06
524 H 90.79952065837452 31.617063947107624 33.628529203889 H 0.0 **** 0.06
525 H 90.77070949590475 30.318200489173904 32.4114439175645 H 0.0 **** 0.06
526 C 30.197181660381943 11.873639338276462 23.704825588980242 C 0.0 **** -0.24
527 H 29.311464166470955 12.327644179201258 24.148782870842894 H 0.0 **** 0.06
528 H 30.68143450366452 12.593309254242172 23.044630639303165 H 0.0 **** 0.06
529 H 29.90569517669237 10.993703165266595 23.1313528976344 H 0.0 **** 0.06
530 H 30.89005881692305 11.57994512555831 24.49312432687786 H 0.0 **** 0.06
531 C 56.7111440651469 93.7982816188555 27.31930369796683 C 0.0 **** -0.24
532 H 56.64297166346219 93.02537249916674 28.08445332129 H 0.0 **** 0.06
533 H 55.8812808436947 94.49617981389113 27.433737742530155 H 0.0 **** 0.06
534 H 56.666840200573034 93.33806023445186 26.33244231731257 H 0.0 **** 0.06
535 H 57.654373220154525 94.33431979033566 27.428468039501865 H 0.0 **** 0.06
536 C 34.69968261346398 60.360512609638135 8.389033580740232 C 0.0 **** -0.24
537 H 35.213221120713115 59.404967454655434 8.49645162702717 H 0.0 **** 0.06
538 H 35.12672770449319 61.08241929173542 9.086312786977714 H 0.0 **** 0.06
539 H 33.639381875184114 60.229166961144585 8.606842392168659 H 0.0 **** 0.06
540 H 34.81924448807541 60.72416721607971 7.369212438599789 H 0.0 **** 0.06
541 C 6.12652070437349 77.7897881452362 78.70676528703817 C 0.0 **** -0.24
542 H 5.057044122988328 77.90899820140879 78.87857545919712 H 0.0 **** 0.06
543 H 6.306492790680155 76.86257777787611 78.16201122105312 H 0.0 **** 0.06
544 H 6.645390444635506 77.75519159452583 79.66501122041959 H 0.0 **** 0.06
545 H 6.4965595401673095 78.63294849085784 78.12377143181516 H 0.0 **** 0.06
546 C 28.27073250541983 48.29910596230917 99.1785899196486 C 0.0 **** -0.24
547 H 27.566080058989655 48.31425270901758 98.34764983745362 H 0.0 **** 0.06
548 H 29.146205935181 48.89649694974034 98.92278083883801 H 0.0 **** 0.06
549 H 28.57614185212961 47.27148361596906 99.37654807394628 H 0.0 **** 0.06
550 H 27.793815798905086 48.714210501787335 100.06665391509014 H 0.0 **** 0.06
551 C 47.35817162143417 48.028203330099 8.565421353740646 C 0.0 **** -0.24
552 H 46.308832952758735 47.94925350697676 8.28242451594221 H 0.0 **** 0.06
553 H 47.43817957819286 48.081804488922444 9.651351200472334 H 0.0 **** 0.06
554 H 47.78641615077282 48.928664560809146 8.124742129245789 H 0.0 **** 0.06
555 H 47.898922705260105 47.153555686372634 8.203987089755287 H 0.0 **** 0.06
556 C 84.84163761205599 86.40147322158253 104.9361485249612 C 0.0 **** -0.24
557 H 84.7607168898626 87.45180692296833 104.6578072476172 H 0.0 **** 0.06
558 H 85.37071898939834 85.85765704822171 104.15443518116734 H 0.0 **** 0.06
559 H 83.842808356278 85.9815387192019 105.0604834590005 H 0.0 **** 0.06
560 H 85.39128228843362 86.31612574509461 105.87440307297467 H 0.0 **** 0.06
561 C 109.20681291315987 60.764379112914206 76.8810809898676 C 0.0 **** -0.24
562 H 110.04485350097568 60.841058960471535 76.1882006614982 H 0.0 **** 0.06
563 H 108.39081368472478 61.400038298933346 76.53669654216628 H 0.0 **** 0.06
564 H 109.5245243849667 61.08629626670592 77.87224730638965 H 0.0 **** 0.06
565 H 108.86703941702643 59.72922533867486 76.92673903050385 H 0.0 **** 0.06
566 C 72.28420118298467 94.75651409343757 38.910133935937935 C 0.0 **** -0.24
567 H 72.28833156831536 94.0342725857584 38.09470274860179 H 0.0 **** 0.06
568 H 73.01607967399698 94.45951018132706 39.66254381408438 H 0.0 **** 0.06
569 H 71.2926370089728 94.78895281906574 39.360900111275924 H 0.0 **** 0.06
570 H 72.54065938812397 95.74358867101685 38.523444111340595 H 0.0 **** 0.06
571 C 27.699469726255103 7.816743203430121 34.24699648412019 C 0.0 **** -0.24
572 H 26.95994880440969 8.5751379821196 34.502748500655 H 0.0 **** 0.06
573 H 27.943455884425802 7.890922088450736 33.18712232736786 H 0.0 **** 0.06
574 H 27.295007558781137 6.827250424149554 34.459682519329505 H 0.0 **** 0.06
575 H 28.60136908974215 7.97466113976833 34.83905178095807 H 0.0 **** 0.06
576 C 24.474430769173267 19.449895636579612 113.21160091049839 C 0.0 **** -0.24
577 H 23.70286242418456 18.730444295611306 113.4832531554475 H 0.0 **** 0.06
578 H 24.192022142410963 19.955398293808884 112.28733824203809 H 0.0 **** 0.06
579 H 25.421703836702008 18.929341917107564 113.06633012326898 H 0.0 **** 0.06
580 H 24.58254349846024 20.18439311155518 114.0093584129149 H 0.0 **** 0.06
581 C 20.703913687448306 102.30977416556368 97.49555679589466 C 0.0 **** -0.24
582 H 20.144435449922838 103.2419077572583 97.5799670272481 H 0.0 **** 0.06
583 H 20.537855041689113 101.70532723942708 98.38708547448815 H 0.0 **** 0.06
584 H 21.766392311133757 102.53192518778619 97.39851023293062 H 0.0 **** 0.06
585 H 20.366006041063173 101.76217898612617 96.61646815764482 H 0.0 **** 0.06
586 C 37.29831198757489 39.24901793357344 75.15578195091612 C 0.0 **** -0.24
587 H 38.08324863341767 38.71927630873222 74.61520976465775 H 0.0 **** 0.06
588 H 37.614337353284526 39.416489044442415 76.18440590439178 H 0.0 **** 0.06
589 H 36.385819883632905 38.6521897309558 75.14699163192225 H 0.0 **** 0.06
590 H 37.10939791173729 40.20731527474402 74.67203032106252 H 0.0 **** 0.06
591 C 105.32767592571807 96.61359785483572 10.63506838258175 C 0.0 **** -0.24
592 H 104.72605717090227 97.47119948452558 10.331944061589581 H 0.0 **** 0.06
593 H 106.17396808452091 96.95571177165121 11.22982173500256 H 0.0 **** 0.06
594 H 105.69111444540056 96.09345324558845 9.749133870765917 H 0.0 **** 0.06
595 H 104.71667353580449 95.93386571303702 11.230161098916653 H 0.0 **** 0.06
596 C 15.865406950159581 2.4526132043319286 90.05371316227888 C 0.0 **** -0.24
597 H 16.853481311424616 2.6708594180731833 90.45934308315577 H 0.0 **** 0.06
598 H 15.266536887694116 3.3638515783793306 90.0476063196146 H 0.0 **** 0.06
599 H 15.376785805537907 1.7004461214510798 90.67352366133184 H 0.0 **** 0.06
600 H 15.965709557833662 2.0756652824014896 89.03639926929924 H 0.0 **** 0.06
601 C 33.520147755847745 40.619835708979195 4.898269739614397 C 0.0 **** -0.24
602 H 32.9657104646347 39.69725031428433 4.723697407028137 H 0.0 **** 0.06
603 H 34.44945166004999 40.39168834606883 5.420114536979401 H 0.0 **** 0.06
604 H 32.918180699177356 41.29492044095258 5.506479594845015 H 0.0 **** 0.06
605 H 33.74573261314811 41.0939433125084 3.943362213409321 H 0.0 **** 0.06
606 C 29.868187390987444 74.48040336763157 13.030548465611854 C 0.0 **** -0.24
607 H 29.451826167180485 74.07543261529432 13.953366451777729 H 0.0 **** 0.06
608 H 30.91155640564736 74.74972811864328 13.19042079721643 H 0.0 **** 0.06
609 H 29.30446249702655 75.36586145355483 12.737166163433702 H 0.0 **** 0.06
610 H 29.80197867707544 73.72982021944895 12.24259901332707 H 0.0 **** 0.06
611 C 94.16908462059425 63.505935137306984 3.5242429622436475 C 0.0 **** -0.24
612 H 93.9999915202385 63.926978865288696 4.514697704432962 H 0.0 **** 0.06
613 H 94.80937231292694 62.62788807174048 3.606528829530248 H 0.0 **** 0.06
614 H 94.65393529230221 64.2506093387257 2.8910737386784433 H 0.0 **** 0.06
615 H 93.21477324757717 63.221454987967356 3.082718642381792 H 0.0 **** 0.06
616 C 14.73280396010449 40.72283142648665 115.16786921548086 C 0.0 **** -0.24
617 H 15.558170271095491 40.959667932573154 115.83836740108322 H 0.0 **** 0.06
618 H 15.025293307212849 39.90690783210049 114.50630842154382 H 0.0 **** 0.06
619 H 14.485038497574806 41.60236253455027 114.5723019553107 H 0.0 **** 0.06
620 H 13.863217228049223 40.424244905183386 115.75336043820724 H 0.0 **** 0.06
621 C 46.62823876252162 86.26674526452217 13.08430050798438 C 0.0 **** -0.24
622 H 46.62803475106682 87.22514250521436 12.566771231853359 H 0.0 **** 0.06
623 H 46.85944838318514 86.42338422578183 14.138517461845392 H 0.0 **** 0.06
624 H 47.38079215828412 85.61502303676659 12.64017608558968 H 0.0 **** 0.06
625 H 45.64605091067074 85.8026155124916 12.992411507641933 H 0.0 **** 0.06
626 C 60.61876677354476 56.182601792977685 65.88320163357906 C 0.0 **** -0.24
627 H 59.62138405507358 55.81197673045295 66.118496568003 H 0.0 **** 0.06
628 H 61.246797171798704 56.12406433011963 66.77279267136856 H 0.0 **** 0.06
629 H 60.552378620198766 57.21992019689903 65.55341053165469 H 0.0 **** 0.06
630 H 61.05386888454757 55.57611049635123 65.08978664679765 H 0.0 **** 0.06
631 C 23.793757610545015 66.5494530590008 67.49569904954294 C 0.0 **** -0.24
632 H 24.029859396533595 66.10628588889108 68.46337399312131 H 0.0 **** 0.06
633 H 24.672263141042265 66.49866132566086 66.85047013888865 H 0.0 **** 0.06
634 H 23.504928347934822 67.59125518557661 67.63400646010382 H 0.0 **** 0.06
635 H 22.971933308894506 66.00164165446492 67.03611514347423 H 0.0 **** 0.06
636 C 95.75277832198142 71.95295464470922 63.163877315229655 C 0.0 **** -0.24
637 H 96.78269143451553 71.83248215586434 62.829275652739966 H 0.0 **** 0.06
638 H 95.47793030248965 73.00694558884774 63.12015506118769 H 0.0 **** 0.06
639 H 95.65935490518447 71.59429854089734 64.18868744417153 H 0.0 **** 0.06
640 H 95.09105751929522 71.37714978845963 62.515364846661214 H 0.0 **** 0.06
641 C 42.69469298722311 30.648511092049432 81.40029374400817 C 0.0 **** -0.24
642 H 42.111321880149205 30.03150490095706 80.71619979641511 H 0.0 **** 0.06
643 H 42.11550917289105 30.835280539921996 82.30434087821502 H 0.0 **** 0.06
644 H 42.935157338349654 31.596194278443292 80.9188008369243 H 0.0 **** 0.06
645 H 43.6178678658128 30.12925806570658 81.65969780177343 H 0.0 **** 0.06
646 C 26.462087941208466 113.65919390613901 103.14127666560759 C 0.0 **** -0.24
647 H 27.370325074909317 114.15541371177129 102.79882930329936 H 0.0 **** 0.06
648 H 25.709499294123532 114.4078559093579 103.38852045896306 H 0.0 **** 0.06
649 H 26.685482981846633 113.06192029258318 104.02530938824341 H 0.0 **** 0.06
650 H 26.083016260989524 113.00977607127678 102.35159625153659 H 0.0 **** 0.06
651 C 40.05919673492758 100.6816629767724 45.60037238159925 C 0.0 **** -0.24
652 H 39.65885273285926 100.09088314571045 44.77641009925017 H 0.0 **** 0.06
653 H 39.23735478250116 101.0500108965891 46.21462851597171 H 0.0 **** 0.06
654 H 40.62328459733699 101.52467057990026 45.20340269329228 H 0.0 **** 0.06
655 H 40.715701701849156 100.05774054940736 46.20756020081252 H 0.0 **** 0.06
656 C 92.76927381593018 51.77389219188484 105.6641578931397 C 0.0 **** -0.24
657 H 93.12302161959752 52.635393054243366 105.09729481187304 H 0.0 **** 0.06
658 H 93.55213962402524 51.44143965240802 106.34701402241456 H 0.0 **** 0.06
659 H 92.51856716946352 50.96544261364295 104.97743129660506 H 0.0 **** 0.06
660 H 91.88336685063445 52.053293447245125 106.23489144166624 H 0.0 **** 0.06
661 C 12.26940999533791 26.09189335449892 74.19005992410379 C 0.0 **** -0.24
662 H 12.327394647158698 26.639427804694805 75.13113474073111 H 0.0 **** 0.06
663 H 13.275021374959863 25.945372766817428 73.79259849641002 H 0.0 **** 0.06
664 H 11.675237899369083 26.66080302881386 73.47498631680767 H 0.0 **** 0.06
665 H 11.802165655928142 25.12276534949885 74.36230553307337 H 0.0 **** 0.06
666 C 107.7548834294067 85.86384764085423 20.140891871605362 C 0.0 **** -0.24
667 H 108.27211532923138 86.22719896586932 19.252401583570986 H 0.0 **** 0.06
668 H 106.67753506777566 85.92846450069143 19.985791319302592 H 0.0 **** 0.06
669 H 108.03600126104965 86.47414541369622 20.999146121699397 H 0.0 **** 0.06
670 H 108.03395606603948 84.82634168242458 20.325038066846588 H 0.0 **** 0.06
671 C 61.509829257743974 1.888155518999156 7.407856510129532 C 0.0 **** -0.24
672 H 62.034644567408805 2.5456982864882036 8.10083945370971 H 0.0 **** 0.06
673 H 61.017438113194885 2.486213681833931 6.641512384112735 H 0.0 **** 0.06
674 H 60.76346371161168 1.3082840917740555 7.951476420758407 H 0.0 **** 0.06
675 H 62.22358767061647 1.2115054960613918 6.937943070127737 H 0.0 **** 0.06
676 C 96.37537730476632 108.0034965627633 36.54072826423118 C 0.0 **** -0.24
677 H 97.44748346910822 108.20096870207698 36.539674896275784 H 0.0 **** 0.06
678 H 96.19742019542622 106.95970752463214 36.28332073337302 H 0.0 **** 0.06
679 H 95.88631015084542 108.64732993712268 35.80903165531478 H 0.0 **** 0.06
680 H 95.97009979403157 108.2079741446237 37.53187862753421 H 0.0 **** 0.06
681 C 67.04085889971148 15.168733567038643 32.611287158911495 C 0.0 **** -0.24
682 H 66.93699045699645 14.084830046155307 32.664611554402455 H 0.0 **** 0.06
683 H 66.18179629329194 15.59015588488074 32.088068556832496 H 0.0 **** 0.06
684 H 67.95406586873779 15.419937707820086 32.071505263336036 H 0.0 **** 0.06
685 H 67.08974429206856 15.579595048997138 33.61990306676745 H 0.0 **** 0.06
686 C 91.80725029959257 62.7526582361385 101.13638554805766 C 0.0 **** -0.24
687 H 92.23023479090358 63.7566123347826 101.09426331052686 H 0.0 **** 0.06
688 H 91.11873332682919 62.61347774564439 100.30215044424875 H 0.0 **** 0.06
689 H 91.27005249465807 62.62287986684538 102.07567998274351 H 0.0 **** 0.06
690 H 92.60968361841591 62.01771208314477 101.07123267243568 H 0.0 **** 0.06
691 C 84.17484635451288 74.05213061446648 70.44709728082236 C 0.0 **** -0.24
692 H 84.32661233171865 74.79855213502282 69.66715305868834 H 0.0 **** 0.06
693 H 83.90303599335584 73.10041732210703 69.99125974092888 H 0.0 **** 0.06
694 H 83.37512109497843 74.37906628935394 71.11259454641535 H 0.0 **** 0.06
695 H 85.09577508817048 73.9318778932165 71.01869380367651 H 0.0 **** 0.06
696 C 11.092170782691767 5.9258765809882785 73.66323172927116 C 0.0 **** -0.24
697 H 12.003047410507605 5.350542064907836 73.49883918924758 H 0.0 **** 0.06
698 H 11.217727383322568 6.9279326458722945 73.25205148006148 H 0.0 **** 0.06
699 H 10.893369156485221 5.992853481907138 74.73233177531446 H 0.0 **** 0.06
700 H 10.256731311490029 5.431828554090751 73.16745215414272 H 0.0 **** 0.06
701 C 82.57621456688221 10.017710330139252 8.179914230332827 C 0.0 **** -0.24
702 H 82.61161947897872 9.400587751356824 9.076884182926449 H 0.0 **** 0.06
703 H 83.3200665304548 9.664403530118832 7.465271962966824 H 0.0 **** 0.06
704 H 82.78966114671431 11.053681092532855 8.443148159374061 H 0.0 **** 0.06
705 H 81.5837154355469 9.953306163801841 7.733537076577875 H 0.0 **** 0.06
706 C 51.741348777186886 109.91890181419026 52.36928485946194 C 0.0 **** -0.24
707 H 51.54362089812662 110.17113218099887 51.326857611730645 H 0.0 **** 0.06
708 H 52.79899822728015 109.68548495310485 52.49138387590011 H 0.0 **** 0.06
709 H 51.1422543092246 109.05250304580846 52.65181633085376 H 0.0 **** 0.06
710 H 51.47966458804774 110.76516558623555 53.00383819205838 H 0.0 **** 0.06
711 C 110.16507189332043 115.37724356883726 63.814607002766195 C 0.0 **** -0.24
712 H 109.51183810116066 114.52959070531179 63.60649110590674 H 0.0 **** 0.06
713 H 110.58024409801612 115.75341697156475 62.87908007432577 H 0.0 **** 0.06
714 H 110.97619370817648 115.0576082905714 64.46954265551125 H 0.0 **** 0.06
715 H 109.59372453737654 116.16611961380404 64.30188068285815 H 0.0 **** 0.06
716 C 26.94780901004767 84.76445751348328 50.997111536414764 C 0.0 **** -0.24
717 H 27.115985664930392 84.21690473726042 51.92428170113686 H 0.0 **** 0.06
718 H 26.130892812589657 85.47376552155319 51.13696915395599 H 0.0 **** 0.06
719 H 26.688342130681065 84.06437521815667 50.20350670156631 H 0.0 **** 0.06
720 H 27.854715962744713 85.30423501382057 50.72414448899076 H 0.0 **** 0.06
721 C 107.87970543037224 32.40134366751684 63.302326661585276 C 0.0 **** -0.24
722 H 107.11141066935528 31.654979903342166 63.505836599177805 H 0.0 **** 0.06
723 H 107.51462157818236 33.103202656553094 62.55172505295506 H 0.0 **** 0.06
724 H 108.77800115719779 31.905765496252997 62.931343982603686 H 0.0 **** 0.06
725 H 108.1154882866723 32.93931236573917 64.2206017278144 H 0.0 **** 0.06
726 C 11.689121380288839 11.164552901943196 1.8453538646890504 C 0.0 **** -0.24
727 H 12.30664473677652 10.946655867555307 2.7170704394939946 H 0.0 **** 0.06
728 H 10.75288867379291 11.620830161911613 2.169065817362398 H 0.0 **** 0.06
729 H 11.476553763670267 10.238870002394634 1.3101752350539542 H 0.0 **** 0.06
730 H 12.219703879320065 11.851920570479052 1.186689420918027 H 0.0 **** 0.06
731 C 75.07122666854724 37.883427809756746 20.633266149178866 C 0.0 **** -0.24
732 H 75.56578771126709 38.76246857764918 20.219227859685148 H 0.0 **** 0.06
733 H 74.027161845472 37.87340671553473 20.320071006368153 H 0.0 **** 0.06
734 H 75.12430249980454 37.916397289672496 21.721705841571605 H 0.0 **** 0.06
735 H 75.56848592652676 36.98351156868578 20.27194921164741 H 0.0 **** 0.06
736 C 9.91553032947121 95.86828336236087 80.71775719460467 C 0.0 **** -0.24
737 H 10.654653282215918 96.64578878885715 80.91148781190648 H 0.0 **** 0.06
738 H 8.96489701275641 96.1504252247488 81.17298282360255 H 0.0 **** 0.06
739 H 10.258557559824283 94.92626752494769 81.14520710694973 H 0.0 **** 0.06
740 H 9.783103620811403 95.75335795660595 79.64227300453959 H 0.0 **** 0.06
741 C 52.837799707515444 96.52219956408615 79.31707046613624 C 0.0 **** -0.24
742 H 53.19499715979316 95.53845488808244 79.62303845069303 H 0.0 **** 0.06
743 H 53.575511806510434 97.27700223424449 79.58965212689435 H 0.0 **** 0.06
744 H 51.893483884733854 96.73768704521481 79.81833169010804 H 0.0 **** 0.06
745 H 52.68618613740233 96.53377110759374 78.23790348743208 H 0.0 **** 0.06
746 C 12.027162648006339 64.62732862196233 63.19378234709806 C 0.0 **** -0.24
747 H 12.543562202380528 64.43144777826862 64.13413825339745 H 0.0 **** 0.06
748 H 11.942887426567864 63.7003314611257 62.62629055188449 H 0.0 **** 0.06
749 H 12.590656377714282 65.35893300201678 62.61527411500622 H 0.0 **** 0.06
750 H 11.030822191402791 65.01721296246106 63.401781993819604 H 0.0 **** 0.06
751 C 66.70776766241332 52.30767519317576 29.077308766047338 C 0.0 **** -0.24
752 H 67.597925259579 51.67825814063355 29.093820369402493 H 0.0 **** 0.06
753 H 66.89673169437552 53.219654871748816 29.644654070949258 H 0.0 **** 0.06
754 H 65.87237889991107 51.767778858689645 29.523581724135397 H 0.0 **** 0.06
755 H 66.46419004725036 52.56496396365702 28.045454355788195 H 0.0 **** 0.06
756 C 17.053876574283464 5.706706220128893 98.25054181672678 C 0.0 **** -0.24
757 H 16.535194029806576 6.663506406583295 98.19963280225463 H 0.0 **** 0.06
758 H 18.107815313250256 5.87684894353751 98.47315273838794 H 0.0 **** 0.06
759 H 16.962967728691098 5.193107779025439 97.29335782351146 H 0.0 **** 0.06
760 H 16.61037324769876 5.095149363571537 99.0357200917106 H 0.0 **** 0.06
761 C 102.9230932556089 84.25735578687619 98.13715432758534 C 0.0 **** -0.24
762 H 103.92343306811503 83.83747758310784 98.24631276600923 H 0.0 **** 0.06
763 H 102.20900376967253 83.63682953832745 98.67875044818751 H 0.0 **** 0.06
764 H 102.65437843566343 84.28471218851405 97.08158344654353 H 0.0 **** 0.06
765 H 102.90815528337873 85.2686705052779 98.54308824203034 H 0.0 **** 0.06
766 C 51.113118851433256 67.88081865417178 65.95906309629117 C 0.0 **** -0.24
767 H 52.133664256812835 67.57665975499668 65.727569302452 H 0.0 **** 0.06
768 H 50.52526925994273 67.91217279011641 65.04066783750139 H 0.0 **** 0.06
769 H 51.1230717548429 68.86904279838913 66.41775895073286 H 0.0 **** 0.06
770 H 50.668676735314676 67.16407770371848 66.65044985342954 H 0.0 **** 0.06
771 C 7.586150866820727 108.54270408637353 98.14554808578586 C 0.0 **** -0.24
772 H 7.906171344875645 107.87612740996008 98.9473338927038 H 0.0 **** 0.06
773 H 6.498170929610458 108.52980417339626 98.0757752367368 H 0.0 **** 0.06
774 H 8.015667455072446 108.20729701078093 97.20204848036246 H 0.0 **** 0.06
775 H 7.925650513130613 109.55651190215397 98.35868581313309 H 0.0 **** 0.06
776 C 103.86534332281815 114.13693412703284 15.344824752727732 C 0.0 **** -0.24
777 H 103.94055521577548 113.10768505162653 14.996235616874145 H 0.0 **** 0.06
778 H 103.2161931303279 114.7010343549056 14.675513991149472 H 0.0 **** 0.06
779 H 104.85758087019474 114.58914655002147 15.355897258579773 H 0.0 **** 0.06
780 H 103.44937753497197 114.1503967634022 16.352179793674935 H 0.0 **** 0.06
781 C 39.28345877456334 66.87634843755325 75.97794153655019 C 0.0 **** -0.24
782 H 38.24248770587562 66.61960128464614 76.17308013046971 H 0.0 **** 0.06
783 H 39.404934656407605 67.12794594705477 74.92414587600263 H 0.0 **** 0.06
784 H 39.91921939559016 66.0256105239088 76.22413541696994 H 0.0 **** 0.06
785 H 39.56721795867728 67.7317474130719 76.59127692690674 H 0.0 **** 0.06
786 C 107.37164994807273 84.68181379185182 48.38844042494651 C 0.0 **** -0.24
787 H 107.69890647725032 85.22359659895261 49.27566953955761 H 0.0 **** 0.06
788 H 108.01594406527403 84.93984608964712 47.54723506363382 H 0.0 **** 0.06
789 H 106.3427424487893 84.95382884795157 48.155777459721776 H 0.0 **** 0.06
790 H 107.43080792700283 83.60906849649524 48.57603815885585 H 0.0 **** 0.06
791 C 99.17948696953019 42.92636650644587 37.127800309093736 C 0.0 **** -0.24
792 H 99.47145059194023 43.86572997416394 37.596696299251654 H 0.0 **** 0.06
793 H 98.94654419707797 43.10112837944115 36.077797513011724 H 0.0 **** 0.06
794 H 98.30115396462779 42.52485310942694 37.63342477790364 H 0.0 **** 0.06
795 H 100.00010620687905 42.21255865242131 37.204647059752375 H 0.0 **** 0.06
796 C 75.9574819582387 19.048305942270986 41.826490088920906 C 0.0 **** -0.24
797 H 75.80428261392242 19.069926901151717 42.90585912264453 H 0.0 **** 0.06
798 H 76.98442966855845 18.750672373538322 41.612603030418455 H 0.0 **** 0.06
799 H 75.7733908985505 20.04068458179549 41.414730339244414 H 0.0 **** 0.06
800 H 75.26935517400005 18.33390902763972 41.37495435066808 H 0.0 **** 0.06
801 C 60.60751851569187 66.97786464291028 55.611408166603155 C 0.0 **** -0.24
802 H 61.518504580770674 67.46607920593405 55.2645754685031 H 0.0 **** 0.06
803 H 60.47048158165604 67.1758018389805 56.67427254341246 H 0.0 **** 0.06
804 H 60.68699590226249 65.90275536685539 55.44835482201606 H 0.0 **** 0.06
805 H 59.75358453357408 67.3661005710664 55.05614463277993 H 0.0 **** 0.06
806 C 93.04619716591782 4.989346593197894 92.71519786113373 C 0.0 **** -0.24
807 H 92.03920831939212 4.85586815358009 92.3204423550423 H 0.0 **** 0.06
808 H 93.43943062421044 4.026204149732166 93.04080200310113 H 0.0 **** 0.06
809 H 93.01639155306054 5.674334391605981 93.56274982201859 H 0.0 **** 0.06
810 H 93.68933814963879 5.401063840232396 91.9377009015547 H 0.0 **** 0.06
811 C 50.84826011182574 76.43587800126022 35.89817970784193 C 0.0 **** -0.24
812 H 50.10916120625183 75.6450732116862 35.77083944133478 H 0.0 **** 0.06
813 H 51.400868457474104 76.56972880755825 34.96822167442538 H 0.0 **** 0.06
814 H 51.540100316041816 76.16272226561847 36.69537107758832 H 0.0 **** 0.06
815 H 50.343124634781475 77.36681059225387 36.15881301429851 H 0.0 **** 0.06
816 C 106.56421845631863 45.89716380927857 114.82902014948334 C 0.0 **** -0.24
817 H 107.4067901477699 45.29359815761512 115.1649239349263 H 0.0 **** 0.06
818 H 106.93127980730242 46.73603583125353 114.23601949517402 H 0.0 **** 0.06
819 H 106.01990568617981 46.27455549758511 115.69495035007752 H 0.0 **** 0.06
820 H 105.8987902129877 45.28577526559721 114.21966372217528 H 0.0 **** 0.06
821 C 57.359803009257064 61.81527989942947 111.66358767682007 C 0.0 **** -0.24
822 H 57.815062368468006 61.083337532149244 112.33082470975107 H 0.0 **** 0.06
823 H 56.78167890783206 62.52961261423383 112.24884420056019 H 0.0 **** 0.06
824 H 56.702325803540475 61.304801720161606 110.95972850898185 H 0.0 **** 0.06
825 H 58.140413592842776 62.34198110233365 111.11488109763702 H 0.0 **** 0.06
826 C 44.38667553937316 96.51996573596847 9.466945819744666 C 0.0 **** -0.24
827 H 45.11965730939555 95.96827030788327 10.055960990857017 H 0.0 **** 0.06
828 H 44.368611728298625 97.55976565945622 9.793423664105603 H 0.0 **** 0.06
829 H 43.40051182111125 96.07727751724502 9.60796086503197 H 0.0 **** 0.06
830 H 44.659705378163856 96.47388451368286 8.41315355468896 H 0.0 **** 0.06
831 C 112.52404618999293 32.78600909425261 60.13134338280156 C 0.0 **** -0.24
832 H 112.8606725464567 33.31320423744179 61.02474028133349 H 0.0 **** 0.06
833 H 113.06201950121626 33.163385504115396 59.26216752022282 H 0.0 **** 0.06
834 H 111.45438639891186 32.94905468363648 59.99591410187617 H 0.0 **** 0.06
835 H 112.7181000280148 31.719889985969814 60.244948251623555 H 0.0 **** 0.06
836 C 92.5050389417188 82.12308012907931 113.79523514512275 C 0.0 **** -0.24
837 H 92.17909390748952 82.41741078931204 114.79315462979149 H 0.0 **** 0.06
838 H 91.70341207888472 82.31355753562181 113.08126614943798 H 0.0 **** 0.06
839 H 92.74932294137338 81.0610645957355 113.79219075835086 H 0.0 **** 0.06
840 H 93.38539878571643 82.70002319478905 113.51549402184115 H 0.0 **** 0.06
841 C 31.45553633117271 4.302506915137172 43.20575617672931 C 0.0 **** -0.24
842 H 31.261115718427206 4.629490607155276 42.18491329833699 H 0.0 **** 0.06
843 H 30.5109041588571 4.068982470562304 43.698763746237525 H 0.0 **** 0.06
844 H 31.96396057459907 5.0971971327579695 43.751977952609614 H 0.0 **** 0.06
845 H 32.08603040447531 3.4134081560002585 43.189124984990684 H 0.0 **** 0.06
846 C 114.12111553699498 65.87622915915424 42.24025281158191 C 0.0 **** -0.24
847 H 114.39701111536306 64.92925102966498 41.77561848634508 H 0.0 **** 0.06
848 H 113.29648867043255 66.32578408080909 41.686233025416044 H 0.0 **** 0.06
849 H 114.97763764752015 66.54951906785035 42.228191310021145 H 0.0 **** 0.06
850 H 113.81290684727033 65.69798029246252 43.27057981021187 H 0.0 **** 0.06
851 C 104.40520285420828 91.8842665566421 24.641467910757214 C 0.0 **** -0.24
852 H 103.74162980990377 91.0347509291937 24.481202646333614 H 0.0 **** 0.06
853 H 104.02934347125478 92.48832103850032 25.466490212074284 H 0.0 **** 0.06
854 H 104.44501830530578 92.48928470955241 23.735133653336966 H 0.0 **** 0.06
855 H 105.4052242714601 91.5236179907007 24.880467265581842 H 0.0 **** 0.06
856 C 20.627908333983257 24.037210863217787 56.64606543699406 C 0.0 **** -0.24
857 H 21.3737783594178 24.358804106800434 57.37182198100515 H 0.0 **** 0.06
858 H 19.678648910615394 23.863319837637597 57.15397733241313 H 0.0 **** 0.06
859 H 20.95929010303533 23.113947550589362 56.169484890967176 H 0.0 **** 0.06
860 H 20.499342523123104 24.81100698197548 55.88972337148423 H 0.0 **** 0.06
861 C 80.67770909969141 80.54628206940421 6.284114659034742 C 0.0 **** -0.24
862 H 80.94042858922273 80.18739339559045 5.288885857932485 H 0.0 **** 0.06
863 H 79.61822965115687 80.36839185777382 6.466809218731328 H 0.0 **** 0.06
864 H 80.88405841234294 81.61483258226434 6.350014309493048 H 0.0 **** 0.06
865 H 81.27088782826314 80.01521723142127 7.029393244812184 H 0.0 **** 0.06
866 C 105.39784939734588 80.55716192023095 71.07597641112523 C 0.0 **** -0.24
867 H 106.2423057882607 80.7991322742655 71.7202928250681 H 0.0 **** 0.06
868 H 105.03317036423348 79.557249793177 71.31483831444308 H 0.0 **** 0.06
869 H 105.71497151756165 80.58835653661458 70.03415139966108 H 0.0 **** 0.06
870 H 104.60002829805654 81.28285312289711 71.23481202739242 H 0.0 **** 0.06
871 C 38.59145255053059 63.71753455651975 114.25817764878906 C 0.0 **** -0.24
872 H 38.719489227637695 63.844726934189 113.1829810604221 H 0.0 **** 0.06
873 H 38.989868200892886 62.747726557183796 114.55895576255637 H 0.0 **** 0.06
874 H 37.53162698508592 63.76716404314982 114.50557324341514 H 0.0 **** 0.06
875 H 39.12559634128874 64.50908977977588 114.7840347791817 H 0.0 **** 0.06
876 C 76.06460754257927 31.796354306132827 69.14451189773064 C 0.0 **** -0.24
877 H 75.03552287937174 31.57051335418174 69.42420743604393 H 0.0 **** 0.06
878 H 76.41745341917834 32.65231903886641 69.72089302489908 H 0.0 **** 0.06
879 H 76.10831137447803 32.03121655242121 68.0812110743336 H 0.0 **** 0.06
880 H 76.69603891021936 30.932488113764975 69.35246285683417 H 0.0 **** 0.06
881 C 108.56996279482131 11.69447142796762 50.38946800041583 C 0.0 **** -0.24
882 H 108.81632427600522 10.68765702205604 50.725486883888664 H 0.0 **** 0.06
883 H 109.45487795907337 12.327818040739995 50.462257193461085 H 0.0 **** 0.06
884 H 107.77854472313774 12.103314664666183 51.01773992862218 H 0.0 **** 0.06
885 H 108.23143153506723 11.659436202361988 49.353844951934434 H 0.0 **** 0.06
886 C 7.874676063659798 62.82663478045571 95.59809788958407 C 0.0 **** -0.24
887 H 7.449375917706268 63.7189369886487 96.05788321192838 H 0.0 **** 0.06
888 H 7.326545514140394 61.94722341251558 95.93895214236687 H 0.0 **** 0.06
889 H 8.923011781739675 62.73456493440765 95.88381696487934 H 0.0 **** 0.06
890 H 7.798891318080951 62.90508968312428 94.5139076741863 H 0.0 **** 0.06
891 C 14.181229800577654 0.9391639375333796 98.87577014042168 C 0.0 **** -0.24
892 H 13.765648676381453 1.3749979055412211 99.78402121607675 H 0.0 **** 0.06
893 H 14.422363842917633 1.7340136305955127 98.16963535811675 H 0.0 **** 0.06
894 H 13.450445616037847 0.2644782268908301 98.42875259157378 H 0.0 **** 0.06
895 H 15.085726328879474 0.38383758551972846 99.12076717458888 H 0.0 **** 0.06
896 C 9.963905118986524 40.66167223066873 6.8356485675522265 C 0.0 **** -0.24
897 H 9.423546157633634 41.59301855773771 6.662873443363523 H 0.0 **** 0.06
898 H 10.729892119015634 40.539331467591694 6.068879561992034 H 0.0 **** 0.06
899 H 9.267280714286684 39.82431170532266 6.790952089334141 H 0.0 **** 0.06
900 H 10.433362258275267 40.69115838186792 7.818726643436904 H 0.0 **** 0.06
901 C 1.8304724904529053 44.88768042575214 14.464830002976441 C 0.0 **** -0.24
902 H 2.8880868184429573 45.09576694214303 14.301701461949193 H 0.0 **** 0.06
903 H 1.440021986358616 45.56690583089801 15.223290465871031 H 0.0 **** 0.06
904 H 1.7099260965514702 43.858496753681266 14.800854433299008 H 0.0 **** 0.06
905 H 1.2846339554188688 45.031474601328796 13.532638249777364 H 0.0 **** 0.06
906 C 25.609265956043686 31.644428394989802 12.469376967760695 C 0.0 **** -0.24
907 H 25.685393456666446 30.59414738509699 12.18913541191688 H 0.0 **** 0.06
908 H 25.217446254391746 31.721620975316227 13.484132926877805 H 0.0 **** 0.06
909 H 24.937882564553632 32.15635843155215 11.780213761036322 H 0.0 **** 0.06
910 H 26.59634154856255 32.105586787993985 12.424025771211717 H 0.0 **** 0.06
911 C 9.009407179937341 80.91219189247536 31.221831436198613 C 0.0 **** -0.24
912 H 10.048736478031003 81.07093968638719 30.934713519195356 H 0.0 **** 0.06
913 H 8.71977623384106 79.8884919663169 30.98549625415137 H 0.0 **** 0.06
914 H 8.371556448652797 81.60671581259837 30.675206400884946 H 0.0 **** 0.06
915 H 8.8984813737315 81.08381209968817 32.29276372504063 H 0.0 **** 0.06
916 C 16.86589927109887 84.73194791507379 4.435756928748049 C 0.0 **** -0.24
917 H 16.951328304981814 83.94285235494155 5.183249455788314 H 0.0 **** 0.06
918 H 17.08394590894136 84.32212835779265 3.4485600523571804 H 0.0 **** 0.06
919 H 17.574983784613693 85.52690111903783 4.66381491185976 H 0.0 **** 0.06
920 H 15.852457106826108 85.13370391711709 4.446806288995816 H 0.0 **** 0.06
921 C 11.914154417450003 104.2725570082834 73.64471561954522 C 0.0 **** -0.24
922 H 12.154190876451857 103.88326672911319 74.6342844954084 H 0.0 **** 0.06
923 H 11.378038403614209 105.21683008705813 73.74634245165745 H 0.0 **** 0.06
924 H 11.289247869186244 103.55417911722284 73.11416121653372 H 0.0 **** 0.06
925 H 12.83506744578489 104.4355468285232 73.08542728591132 H 0.0 **** 0.06
926 C 70.72696702420515 97.70488848374524 88.19473496733869 C 0.0 **** -0.24
927 H 70.68514375364319 97.18804164987952 89.15281797741793 H 0.0 **** 0.06
928 H 70.25726092290344 97.08768626012883 87.42786754166818 H 0.0 **** 0.06
929 H 71.76750768881175 97.88860516892527 87.92584407974124 H 0.0 **** 0.06
930 H 70.19834832507487 98.6544365427579 88.27091665174476 H 0.0 **** 0.06
931 C 106.40088680643336 56.35914050915891 93.43953189547716 C 0.0 **** -0.24
932 H 106.28881404741901 57.392127491650236 93.11004356373371 H 0.0 **** 0.06
933 H 105.43203419678696 55.859889917501384 93.40484050702011 H 0.0 **** 0.06
934 H 106.78126376905408 56.34305187236472 94.4609390102232 H 0.0 **** 0.06
935 H 107.10003762085114 55.84156672007115 92.78250792891069 H 0.0 **** 0.06
936 C 33.96788705762458 19.909916078839956 70.74995205439595 C 0.0 **** -0.24
937 H 34.451501140477774 20.886494523449755 70.76362343524269 H 0.0 **** 0.06
938 H 33.20141722257995 19.873034182804133 71.523734745094 H 0.0 **** 0.06
939 H 34.71071939669389 19.1344642452147 70.93657607861385 H 0.0 **** 0.06
940 H 33.507537787486626 19.745787910328374 69.77495331637627 H 0.0 **** 0.06
941 C 66.92928505162737 109.41380180617423 78.71718946703666 C 0.0 **** -0.24
942 H 67.69957151407371 108.7045273400001 78.41451727140668 H 0.0 **** 0.06
943 H 66.941711710954 109.52342791660188 79.80194091468837 H 0.0 **** 0.06
944 H 65.95309955219565 109.04644010992719 78.40040369015412 H 0.0 **** 0.06
945 H 67.12206867704464 110.3795908542394 78.25170921433971 H 0.0 **** 0.06
946 C 79.93084689417927 20.128308154037484 18.321522177544665 C 0.0 **** -0.24
947 H 80.01189218742564 20.094228394180078 19.40828536943482 H 0.0 **** 0.06
948 H 79.12143905827702 20.80239223619384 18.039721504422744 H 0.0 **** 0.06
949 H 79.72143838690388 19.12826482933525 17.941159954437012 H 0.0 **** 0.06
950 H 80.86907355193915 20.48952708420262 17.899642307298024 H 0.0 **** 0.06
951 C 51.939061715886666 64.74212953975353 93.00995568533887 C 0.0 **** -0.24
952 H 51.36528941463515 63.854489540139014 93.27711587212303 H 0.0 **** 0.06
953 H 51.35834889504974 65.63376874985619 93.24653571556797 H 0.0 **** 0.06
954 H 52.15828619183544 64.72431802354083 91.94210111733122 H 0.0 **** 0.06
955 H 52.871675859014374 64.75598818671784 93.5726578052101 H 0.0 **** 0.06
956 C 40.27342076084258 58.175191735961256 93.71479101749179 C 0.0 **** -0.24
957 H 39.510815470847774 57.644789047229885 93.14443662741758 H 0.0 **** 0.06
958 H 40.790931896540656 57.47297055511556 94.36809920056001 H 0.0 **** 0.06
959 H 39.80125610428348 58.9518133391986 94.31602421383073 H 0.0 **** 0.06
960 H 40.988445680925736 58.6297274293887 93.02924042324577 H 0.0 **** 0.06
961 C 64.19763418621162 34.548978084000055 16.835691921677522 C 0.0 **** -0.24
962 H 64.69627303502074 33.818991924378906 17.47385687647636 H 0.0 **** 0.06
963 H 64.7017560079612 34.59161946651534 15.869541859781265 H 0.0 **** 0.06
964 H 64.23559198891084 35.530633684015186 17.30957539207168 H 0.0 **** 0.06
965 H 63.158226169572195 34.255196687963576 16.69120870601847 H 0.0 **** 0.06
966 C 89.50474224875299 79.55754131091152 93.32554815717151 C 0.0 **** -0.24
967 H 89.31990524909386 79.17848637215297 92.32029365279163 H 0.0 **** 0.06
968 H 89.60331961032475 78.71867554219259 94.01586025907272 H 0.0 **** 0.06
969 H 88.67123254527058 80.18695565713111 93.63450449519735 H 0.0 **** 0.06
970 H 90.42386392884941 80.14276233101262 93.33019712673251 H 0.0 **** 0.06
971 C 73.53189109693136 95.29748813957687 73.35198558026138 C 0.0 **** -0.24
972 H 73.7133255695496 96.18652414835199 73.95654865638494 H 0.0 **** 0.06
973 H 74.15723213371538 95.33226532164807 72.45916635154748 H 0.0 **** 0.06
974 H 72.48201545459898 95.26614502592 73.05948814568245 H 0.0 **** 0.06
975 H 73.774628194793 94.40846290969463 73.93269524510532 H 0.0 **** 0.06
976 C 5.0448835302770885 19.857511722165583 95.8284913609993 C 0.0 **** -0.24
977 H 3.9675810839623935 19.732569743910346 95.93822701648656 H 0.0 **** 0.06
978 H 5.321368556254148 20.87558271331264 96.10259435137533 H 0.0 **** 0.06
979 H 5.327890832629095 19.67007869280178 94.79244950813785 H 0.0 **** 0.06
980 H 5.560323351500493 19.152067271103135 96.48012996815811 H 0.0 **** 0.06
981 C 73.27525720248192 91.98082874303711 104.57230292193071 C 0.0 **** -0.24
982 H 72.65189668607948 91.12739628876923 104.30362888818135 H 0.0 **** 0.06
983 H 73.35457761912627 92.04362059707415 105.65824744240598 H 0.0 **** 0.06
984 H 72.8246880282058 92.89489539695379 104.1876206578761 H 0.0 **** 0.06
985 H 74.26869223033296 91.85584591671346 104.1417636183049 H 0.0 **** 0.06
986 C 53.62905685719841 111.34810170206428 70.71682695976142 C 0.0 **** -0.24
987 H 54.405144505529904 110.59041293179702 70.81804736519217 H 0.0 **** 0.06
988 H 53.711054026738054 112.06382389137963 71.53498904197406 H 0.0 **** 0.06
989 H 52.649067653370366 110.87215994526625 70.74723343316145 H 0.0 **** 0.06
990 H 53.75087001414846 111.86816147141987 69.76587036537904 H 0.0 **** 0.06
991 C 0.4366764437137647 72.36171225739233 86.66832978677388 C 0.0 **** -0.24
992 H 0.972514182607469 72.78243391586824 87.51842218911565 H 0.0 **** 0.06
993 H -0.26719991581012437 73.09828432264084 86.28111974375366 H 0.0 **** 0.06
994 H -0.10666679779315302 71.47124911390259 86.98627403190511 H 0.0 **** 0.06
995 H 1.1478006365421152 72.09282832272527 85.88665605048249 H 0.0 **** 0.06
996 C 0.09866282398709814 48.76348936934166 47.84735843712454 C 0.0 **** -0.24
997 H 0.849379352049425 49.423064258277 48.282168281517414 H 0.0 **** 0.06
998 H -0.011212354705236294 47.87682925835042 48.472597047147616 H 0.0 **** 0.06
999 H 0.41282364369871516 48.466028233878816 46.84670772905875 H 0.0 **** 0.06
1000 H -0.8552088076577604 49.28722183493011 47.78820478323547 H 0.0 **** 0.06
1001 C 30.19861647513359 107.76093294384589 19.556200215771014 C 0.0 **** -0.24
1002 H 30.722119643045488 107.90857792107934 20.500814614334814 H 0.0 **** 0.06
1003 H 30.15898565622475 106.69589610725097 19.325486197467086 H 0.0 **** 0.06
1004 H 30.72988775129675 108.28472996105796 18.761394268192248 H 0.0 **** 0.06
1005 H 29.185646164183026 108.15343994513654 19.63679975059685 H 0.0 **** 0.06
1006 C 115.69569400608935 44.78975744028315 18.049642884332542 C 0.0 **** -0.24
1007 H 114.89165316718748 44.16721187917858 18.442368398133908 H 0.0 **** 0.06
1008 H 116.19910578089849 44.26349099088371 17.23862304717315 H 0.0 **** 0.06
1009 H 116.41075489077116 45.00264982898073 18.844601220246915 H 0.0 **** 0.06
1010 H 115.2801341732802 45.72412753522535 17.673550524755825 H 0.0 **** 0.06
1011 C 24.100121537494374 76.82466972683264 45.271961789388996 C 0.0 **** -0.24
1012 H 23.593684085084533 76.9452012847699 44.31467072832842 H 0.0 **** 0.06
1013 H 23.396095767222732 76.43982815245855 46.00909853790645 H 0.0 **** 0.06
1014 H 24.483855980375665 77.78949334021323 45.60418800960235 H 0.0 **** 0.06
1015 H 24.927754639916543 76.12378539391483 45.159678189765714 H 0.0 **** 0.06
1016 C 28.988188725487447 48.67680026232378 104.81157426137582 C 0.0 **** -0.24
1017 H 28.22433053435816 49.314145987300066 105.25609761150366 H 0.0 **** 0.06
1018 H 29.680819111512605 49.28804895087927 104.23193452288453 H 0.0 **** 0.06
1019 H 28.51452062788593 47.94525227077537 104.15742367013624 H 0.0 **** 0.06
1020 H 29.533411684826717 48.15880920111053 105.60081387798016 H 0.0 **** 0.06
1021 C 59.02964718816355 7.110168773038765 17.115245097727325 C 0.0 **** -0.24
1022 H 58.87970266614218 8.105201971004092 17.535840651925895 H 0.0 **** 0.06
1023 H 60.09625486700037 6.927718839784831 16.985885050948383 H 0.0 **** 0.06
1024 H 58.52915059025588 7.045395891112037 16.149563191451335 H 0.0 **** 0.06
1025 H 58.611652788507286 6.364146307116769 17.792028813012877 H 0.0 **** 0.06
1026 C 37.25709646345456 77.98758575677456 21.027217233657183 C 0.0 **** -0.24
1027 H 36.87239361159783 77.65036188466087 21.990330835924084 H 0.0 **** 0.06
1028 H 38.32149839693892 78.20524589632748 21.118022410996048 H 0.0 **** 0.06
1029 H 36.72612961700213 78.88854030605361 20.720706150891658 H 0.0 **** 0.06
1030 H 37.10688429003392 77.20646491479235 20.282765468984735 H 0.0 **** 0.06
1031 C 25.063351054465997 29.684693279883987 20.439599521050127 C 0.0 **** -0.24
1032 H 24.66097810447249 29.32880255027365 19.491090812378843 H 0.0 **** 0.06
1033 H 24.789362264373025 30.729968040599488 20.58078646730769 H 0.0 **** 0.06
1034 H 26.14986739627149 29.591867857479485 20.429317923331652 H 0.0 **** 0.06
1035 H 24.655139225768494 29.087365930245966 21.25409877373295 H 0.0 **** 0.06
1036 C 31.982769313494202 69.21696955577895 28.87022235564575 C 0.0 **** -0.24
1037 H 31.857260401610915 68.55056465375085 28.01574585290348 H 0.0 **** 0.06
1038 H 31.857174581049605 70.25037814157292 28.545643122192587 H 0.0 **** 0.06
1039 H 32.979568646845905 69.0858181428276 29.289840385217815 H 0.0 **** 0.06
1040 H 31.235441532815457 68.98009584966115 29.626959398406257 H 0.0 **** 0.06
1041 C 107.25970781207599 0.5958454956521564 53.46967633616049 C 0.0 **** -0.24
1042 H 106.85743302159705 0.5855026266495997 52.45699773689862 H 0.0 **** 0.06
1043 H 108.21596824631558 1.1199713450980653 53.47592963385341 H 0.0 **** 0.06
1044 H 107.40357035909102 -0.42796014583149145 53.81379912591991 H 0.0 **** 0.06
1045 H 106.56127887698966 1.1070867779577611 54.1324005283672 H 0.0 **** 0.06
1046 C 105.96647891488726 47.32594880049939 67.43903840509608 C 0.0 **** -0.24
1047 H 106.31159672224578 46.38899373805174 67.8759192366312 H 0.0 **** 0.06
1048 H 106.22643978902983 47.35002363178262 66.38018204878858 H 0.0 **** 0.06
1049 H 106.44292695872122 48.162448506573895 67.9498342959339 H 0.0 **** 0.06
1050 H 104.88442956201663 47.40151132763742 67.54997762717574 H 0.0 **** 0.06
1051 C 56.84343685574703 93.0573739175382 79.84935050925938 C 0.0 **** -0.24
1052 H 56.37306462307953 93.75658046660322 79.15805308726067 H 0.0 **** 0.06
1053 H 56.76524307732902 93.44342457341986 80.86600021568668 H 0.0 **** 0.06
1054 H 57.893392740735266 92.93659274589956 79.58532507051174 H 0.0 **** 0.06
1055 H 56.34019687373603 92.09248811460057 79.78738380340789 H 0.0 **** 0.06
1056 C 67.80888414726425 6.913399382002552 102.12419581268159 C 0.0 **** -0.24
1057 H 68.08987700133667 7.030522878905629 103.17151245609097 H 0.0 **** 0.06
1058 H 66.8875642210453 7.463356183044311 101.93205762939877 H 0.0 **** 0.06
1059 H 67.65475100575168 5.857139488253807 101.90578353899667 H 0.0 **** 0.06
1060 H 68.6044749465456 7.30369090889468 101.48900622880734 H 0.0 **** 0.06
1061 C 81.54145828724535 74.21210725559769 77.25339196329503 C 0.0 **** -0.24
1062 H 80.45555559227753 74.239250898477 77.15931984311544 H 0.0 **** 0.06
1063 H 81.97281003573619 75.06389414290032 76.72655726971777 H 0.0 **** 0.06
1064 H 81.91961052253231 73.28681488104729 76.81987977717932 H 0.0 **** 0.06
1065 H 81.81600918054411 74.25992023794834 78.30711805920765 H 0.0 **** 0.06
1066 C 53.89592209055226 8.927832150387367 24.77658657401988 C 0.0 **** -0.24
1067 H 54.760668902097635 9.565287017749707 24.958133126695586 H 0.0 **** 0.06
1068 H 53.2812432646414 8.885345996884723 25.676287574766086 H 0.0 **** 0.06
1069 H 54.23193307615217 7.924094820084878 24.51813947799375 H 0.0 **** 0.06
1070 H 53.30855919032252 9.33698148344233 23.95424075636742 H 0.0 **** 0.06
1071 C 29.34663866240345 96.73956018769962 113.98652298503384 C 0.0 **** -0.24
1072 H 29.89498493984712 97.16569209713441 114.82737373913986 H 0.0 **** 0.06
1073 H 30.027756055816326 96.59010944214884 113.14863901446715 H 0.0 **** 0.06
1074 H 28.549041703644264 97.4218238936914 113.69090101970171 H 0.0 **** 0.06
1075 H 28.91592328961343 95.78287147572206 114.28131938327697 H 0.0 **** 0.06
1076 C 111.95285056764862 57.525830100574865 5.893174742273175 C 0.0 **** -0.24
1077 H 112.84911430664879 57.94487982353246 5.436992168330619 H 0.0 **** 0.06
1078 H 111.46326819261012 56.858447771565494 5.184808439517269 H 0.0 **** 0.06
1079 H 111.27194315551219 58.33304143872232 6.164388599557697 H 0.0 **** 0.06
1080 H 112.22864830303558 56.967718547573384 6.788732755151727 H 0.0 **** 0.06
1081 C 99.81412488266162 85.87804220442825 92.02891647708077 C 0.0 **** -0.24
1082 H 100.29547851689921 86.02797468968123 91.06295744848501 H 0.0 **** 0.06
1083 H 99.42788993085381 86.83042507203197 92.39360739424751 H 0.0 **** 0.06
1084 H 100.53949861599281 85.4833296209801 92.73974897432186 H 0.0 **** 0.06
1085 H 98.99153294074844 85.17073933215653 91.91864333045356 H 0.0 **** 0.06
1086 C 30.716685311858015 96.56736381849862 90.31757064102919 C 0.0 **** -0.24
1087 H 30.864470532969307 96.6288884120525 89.23966981865436 H 0.0 **** 0.06
1088 H 31.446741969341588 95.87990754980984 90.74492076311338 H 0.0 **** 0.06
1089 H 29.70986251004709 96.20426910110803 90.52557323099114 H 0.0 **** 0.06
1090 H 30.844895784137975 97.55590007287697 90.75903880411335 H 0.0 **** 0.06
1091 C 56.291233576090775 9.85404166154862 56.01904117494769 C 0.0 **** -0.24
1092 H 57.228140652763955 9.346850776714149 55.78890535560316 H 0.0 **** 0.06
1093 H 56.24942645290341 10.074076950417094 57.086031630441994 H 0.0 **** 0.06
1094 H 55.454180076723276 9.21045057648405 55.74670686978101 H 0.0 **** 0.06
1095 H 56.232823641206124 10.78329430385861 55.45261399359475 H 0.0 **** 0.06
1096 C 10.18423193042588 114.30082609398926 92.07930139545294 C 0.0 **** -0.24
1097 H 10.75458487361604 113.41161761283882 91.80961491330066 H 0.0 **** 0.06
1098 H 9.16462168703319 114.01337136912028 92.33861159151843 H 0.0 **** 0.06
1099 H 10.165053822516853 114.98895761306915 91.23380200681646 H 0.0 **** 0.06
1100 H 10.652820973339061 114.78828776498202 92.93382369056496 H 0.0 **** 0.06
1101 C 28.57586899978736 46.416840450762805 17.656090656157915 C 0.0 **** -0.24
1102 H 27.97795114325254 47.246187892373385 17.27887056777351 H 0.0 **** 0.06
1103 H 28.629107041599127 45.63395214065192 16.899684972546368 H 0.0 **** 0.06
1104 H 28.11435493859443 46.01938273896739 18.559777590779305 H 0.0 **** 0.06
1105 H 29.5812171409342 46.769908971502346 17.88604871613353 H 0.0 **** 0.06
1106 C 61.70798522185262 49.08787678778313 114.0832156355918 C 0.0 **** -0.24
1107 H 60.62201424403616 49.16248459574629 114.1415224706302 H 0.0 **** 0.06
1108 H 62.05335990249987 49.529648983632256 113.14857740826747 H 0.0 **** 0.06
1109 H 62.002464109205086 48.03870716009138 114.12020597882812 H 0.0 **** 0.06
1110 H 62.15473298033326 49.61996617336419 114.9240101291835 H 0.0 **** 0.06
1111 C 4.217898905956217 93.91972637241213 110.21598964178997 C 0.0 **** -0.24
1112 H 3.8437549655772365 93.75149533299623 109.20565670161793 H 0.0 **** 0.06
1113 H 4.950313554440486 93.15037064971199 110.46451858620608 H 0.0 **** 0.06
1114 H 3.38898103347438 93.87393764982113 110.92188232701278 H 0.0 **** 0.06
1115 H 4.688851492761168 94.90095998590138 110.27133580183283 H 0.0 **** 0.06
1116 C 5.056273207068756 3.7891929649696294 87.70260981818888 C 0.0 **** -0.24
1117 H 5.208000084654458 4.5398925876059195 88.4778123479013 H 0.0 **** 0.06
1118 H 4.661455140831777 4.267741060436322 86.80555604788714 H 0.0 **** 0.06
1119 H 4.348619235421438 3.0389707753811024 88.05634916415531 H 0.0 **** 0.06
1120 H 6.00793954036034 3.310085710246568 87.46965172344602 H 0.0 **** 0.06
1121 C 18.56107396489611 59.83011633689012 97.08313478268838 C 0.0 **** -0.24
1122 H 18.28605032798356 59.66286718566199 98.1247089318243 H 0.0 **** 0.06
1123 H 17.807225458398364 60.45613362146107 96.60515802012247 H 0.0 **** 0.06
1124 H 18.620997584808066 58.873450078522104 96.56473941020866 H 0.0 **** 0.06
1125 H 19.528565667655243 60.32965317315068 97.03902485244174 H 0.0 **** 0.06
1126 C 0.8672273015314289 88.57993481488754 75.4558275636912 C 0.0 **** -0.24
1127 H -0.04163496200490613 88.39201633505147 76.02761249401968 H 0.0 **** 0.06
1128 H 1.4213101674071993 87.64739106520804 75.33859091950052 H 0.0 **** 0.06
1129 H 1.4855164495142645 89.30637800860865 75.98340485166636 H 0.0 **** 0.06
1130 H 0.603234407142395 88.97155564708842 74.47382664764126 H 0.0 **** 0.06
1131 C 58.526173031657514 49.936294969473295 111.73098132238903 C 0.0 **** -0.24
1132 H 57.86239934464425 50.238601562133624 110.92187681952811 H 0.0 **** 0.06
1133 H 59.3659927482417 49.37386425647628 111.32139424183794 H 0.0 **** 0.06
1134 H 57.97801943709914 49.30972403082188 112.43584624924677 H 0.0 **** 0.06
1135 H 58.89787014656935 50.82199397365048 112.24616429000605 H 0.0 **** 0.06
1136 C 10.806706739531815 109.86514699361055 1.5940454846334546 C 0.0 **** -0.24
1137 H 9.8026295515558 110.21465648492898 1.3536976514757981 H 0.0 **** 0.06
1138 H 10.884765204713855 109.69567012956429 2.6678287112626293 H 0.0 **** 0.06
1139 H 11.535647501589157 110.6173201935423 1.290201963011043 H 0.0 **** 0.06
1140 H 11.004256957686362 108.9343302861293 1.063094366108345 H 0.0 **** 0.06
1141 C 14.692990179184505 16.200568351605313 80.7281282207648 C 0.0 **** -0.24
1142 H 15.607551581154667 16.03733603474072 81.29831031645116 H 0.0 **** 0.06
1143 H 14.690954282224425 15.551422149804097 79.85228060137379 H 0.0 **** 0.06
1144 H 14.644596123676479 17.242081448541683 80.40940187578431 H 0.0 **** 0.06
1145 H 13.830106384624514 15.971418950401358 81.35318586232873 H 0.0 **** 0.06
1146 C 41.020923550154976 65.91695297880278 108.84356817334296 C 0.0 **** -0.24
1147 H 40.66128923193264 65.13529488019239 109.51381724937113 H 0.0 **** 0.06
1148 H 40.17721543404758 66.5126530714306 108.49518192485363 H 0.0 **** 0.06
1149 H 41.52242456229243 65.46110897078512 107.99061338759626 H 0.0 **** 0.06
1150 H 41.722899000605196 66.55696924756364 109.3777896530824 H 0.0 **** 0.06
1151 C 46.200357786117735 6.888673315572021 62.546964858945444 C 0.0 **** -0.24
1152 H 46.90284915692936 6.055673423138501 62.51216475912 H 0.0 **** 0.06
1153 H 46.36969644651859 7.4681689492985015 63.45492479149246 H 0.0 **** 0.06
1154 H 45.18045389973375 6.504791569154065 62.54417163929381 H 0.0 **** 0.06
1155 H 46.35028294943456 7.52638063436541 61.67538593158949 H 0.0 **** 0.06
1156 C 61.82068492502575 74.52711092451722 94.00059715708025 C 0.0 **** -0.24
1157 H 61.42596243452807 73.52413606164447 93.83578334353362 H 0.0 **** 0.06
1158 H 61.555050884167635 75.16590936492358 93.1578764946953 H 0.0 **** 0.06
1159 H 62.90605073153471 74.47947478631968 94.0932625471518 H 0.0 **** 0.06
1160 H 61.39587451425863 74.939183505974 94.91641117690261 H 0.0 **** 0.06
1161 C 11.950641265418113 61.27134919808437 104.78467995275969 C 0.0 **** -0.24
1162 H 11.835343905310708 60.19653547234936 104.64318449580836 H 0.0 **** 0.06
1163 H 12.950416982822446 61.48305458189197 105.1635589572409 H 0.0 **** 0.06
1164 H 11.208314997564003 61.6259086174535 105.49921844044937 H 0.0 **** 0.06
1165 H 11.807765086692882 61.78019667215444 103.83043694575977 H 0.0 **** 0.06
1166 C 74.56628980786908 78.25172002651402 79.2095833855555 C 0.0 **** -0.24
1167 H 74.56988839245204 77.27577310166569 79.6955140853824 H 0.0 **** 0.06
1168 H 74.66913139777208 79.03277902274064 79.96194588757129 H 0.0 **** 0.06
1169 H 73.62805774175712 78.38498565175487 78.67194617523529 H 0.0 **** 0.06
1170 H 75.39817891131383 78.3097656953378 78.50848131135655 H 0.0 **** 0.06
1171 C 37.877388267467566 30.662322049863164 57.86599377925328 C 0.0 **** -0.24
1172 H 37.58072284793379 30.000395786153554 58.68043425892194 H 0.0 **** 0.06
1173 H 38.92940889276891 30.922755876294325 57.9757785940298 H 0.0 **** 0.06
1174 H 37.273164280696584 31.56920936948989 57.89797431701533 H 0.0 **** 0.06
1175 H 37.72399497871405 30.156657392606576 56.91275629247966 H 0.0 **** 0.06
1176 C 31.448020570709886 47.1569630661121 84.70930214006145 C 0.0 **** -0.24
1177 H 31.230436982184983 47.10271124714657 83.64229130235086 H 0.0 **** 0.06
1178 H 30.826347166872324 47.92601384300761 85.16839263263802 H 0.0 **** 0.06
1179 H 32.49870344548768 47.40575400460855 84.85290727628649 H 0.0 **** 0.06
1180 H 31.236222289634597 46.193532159435605 85.17270296417868 H 0.0 **** 0.06
1181 C 50.01533290350244 109.77694338562944 24.758062327464046 C 0.0 **** -0.24
1182 H 49.71987066543318 108.79853111989735 25.13886878284785 H 0.0 **** 0.06
1183 H 50.9168835673637 109.67432951585846 24.15523260055099 H 0.0 **** 0.06
1184 H 50.2106864127627 110.44783655068827 25.594512757315442 H 0.0 **** 0.06
1185 H 49.21190864305072 110.18527412971216 24.14498531306144 H 0.0 **** 0.06
1186 C 115.68343541117719 40.96842531998655 53.39865430639969 C 0.0 **** -0.24
1187 H 116.55380783539702 41.6222633425605 53.450458045590835 H 0.0 **** 0.06
1188 H 114.84139673668166 41.44544995895507 53.90073135455353 H 0.0 **** 0.06
1189 H 115.91154526997481 40.02209146264494 53.888823739626446 H 0.0 **** 0.06
1190 H 115.42909353774323 40.785773824069736 52.35436141809936 H 0.0 **** 0.06
1191 C 99.47854071941853 18.19284855001075 11.742674410240781 C 0.0 **** -0.24
1192 H 98.61708378796749 18.82391534171012 11.962325619716765 H 0.0 **** 0.06
1193 H 99.39622683924998 17.808502898370847 10.725898710453123 H 0.0 **** 0.06
1194 H 99.50752437057403 17.360752381487146 12.445376919443447 H 0.0 **** 0.06
1195 H 100.39134345242238 18.780226580841656 11.836871683596584 H 0.0 **** 0.06
1196 C 52.44396890212829 36.884620631539974 28.848293519068342 C 0.0 **** -0.24
1197 H 52.38546269374092 36.52269615976445 29.874835126235276 H 0.0 **** 0.06
1198 H 52.97100982871439 36.15453281429916 28.23435004911591 H 0.0 **** 0.06
1199 H 52.98143882803572 37.83294268348453 28.828259594962972 H 0.0 **** 0.06
1200 H 51.43736304765798 37.02964635729728 28.457091380945407 H 0.0 **** 0.06
1201 C 15.109969385793278 5.5291743313229915 2.9457125823583397 C 0.0 **** -0.24
1202 H 15.276917587880718 4.9965987222453805 2.008718685440101 H 0.0 **** 0.06
1203 H 15.935612831355229 5.327266451980279 3.628257882743128 H 0.0 **** 0.06
1204 H 14.176624593039122 5.190355335097735 3.3945367223305993 H 0.0 **** 0.06
1205 H 15.05284987224195 6.599740242175443 2.750343893748891 H 0.0 **** 0.06
1206 C 55.9008894326819 53.05938924826073 89.7027646608241 C 0.0 **** -0.24
1207 H 56.905437189038246 52.655768088734305 89.57382761456532 H 0.0 **** 0.06
1208 H 55.959444147380815 54.13817375990199 89.84698769104168 H 0.0 **** 0.06
1209 H 55.43497469765527 52.60097222047108 90.57457897936976 H 0.0 **** 0.06
1210 H 55.30578722868248 52.842107860237945 88.816268140767 H 0.0 **** 0.06
1211 C 38.19582883292001 76.64348771594027 54.67480777434372 C 0.0 **** -0.24
1212 H 39.138781407366665 76.36026233736138 55.14204943415285 H 0.0 **** 0.06
1213 H 38.13529465654574 76.19816099319294 53.68079982629675 H 0.0 **** 0.06
1214 H 38.14386782686642 77.72904505809117 54.59037860080181 H 0.0 **** 0.06
1215 H 37.36570652476452 76.28615566171067 55.28405871973064 H 0.0 **** 0.06
1216 C 23.561153176221296 88.07997470104499 43.130896079197754 C 0.0 **** -0.24
1217 H 22.63235008677175 87.51044209735491 43.09552079467411 H 0.0 **** 0.06
1218 H 23.416781436281866 89.03980358594484 42.63470227583646 H 0.0 **** 0.06
1219 H 24.348801047326333 87.52263577759524 42.624636190294034 H 0.0 **** 0.06
1220 H 23.844606297744292 88.24675736505549 44.17087729548482 H 0.0 **** 0.06
1221 C 99.52087424495369 67.72338799314036 13.658626075596967 C 0.0 **** -0.24
1222 H 99.47073844181705 68.77509173533844 13.375812298053443 H 0.0 **** 0.06
1223 H 98.52965713345168 67.27868394023969 13.577503723563947 H 0.0 **** 0.06
1224 H 99.87474187240167 67.64088410304657 14.686015361131254 H 0.0 **** 0.06
1225 H 100.20951249398615 67.20133150320274 12.993243907496783 H 0.0 **** 0.06
1226 C 111.78435191022825 82.0807582545911 77.7574981285272 C 0.0 **** -0.24
1227 H 112.27558970021659 81.97804851958938 76.7895646869066 H 0.0 **** 0.06
1228 H 110.94845432346017 81.3836393988949 77.81664621629463 H 0.0 **** 0.06
1229 H 111.41771681712277 83.10081566648876 77.87105663602262 H 0.0 **** 0.06
1230 H 112.4987358703269 81.86079061975914 78.55210046916358 H 0.0 **** 0.06
1231 C 51.65395416652309 99.42734099270871 63.63936596982031 C 0.0 **** -0.24
1232 H 51.923057731123464 98.71802939061223 64.42195608042775 H 0.0 **** 0.06
1233 H 50.61725706311705 99.73741629092325 63.77192316953441 H 0.0 **** 0.06
1234 H 51.76978326537622 98.95291758801346 62.66493125510234 H 0.0 **** 0.06
1235 H 52.30581510980974 100.29903644898451 63.699717653434156 H 0.0 **** 0.06
1236 C 32.879099036012235 27.327213479496834 91.39834737772122 C 0.0 **** -0.24
1237 H 33.85752168777705 27.13106464502178 90.95872393685625 H 0.0 **** 0.06
1238 H 32.91895660823863 28.25120774170145 91.9754097290166 H 0.0 **** 0.06
1239 H 32.602252004859935 26.50129772922608 92.05337168621546 H 0.0 **** 0.06
1240 H 32.13840645160124 27.425617674240186 90.60472651264635 H 0.0 **** 0.06
1241 C 15.952216986903522 20.658716298278563 81.63904967728436 C 0.0 **** -0.24
1242 H 16.503354729912473 19.81761313576112 81.2180596024607 H 0.0 **** 0.06
1243 H 16.64909450453331 21.459865980493618 81.88870138709837 H 0.0 **** 0.06
1244 H 15.430440501283613 20.336907535639142 82.54021024731495 H 0.0 **** 0.06
1245 H 15.228211892561205 21.020545089951497 80.90930829398735 H 0.0 **** 0.06
1246 C 100.86100112687231 40.88935692123922 90.58030465391644 C 0.0 **** -0.24
1247 H 101.13706595825266 39.85032588815839 90.39901836396893 H 0.0 **** 0.06
1248 H 101.5187627154896 41.54491061478236 90.00965589230734 H 0.0 **** 0.06
1249 H 100.95825247814219 41.110867183346144 91.64328977356814 H 0.0 **** 0.06
1250 H 99.82874228929268 41.04945950766303 90.26961381541375 H 0.0 **** 0.06
1251 C 68.85522942706379 40.31349774954242 97.05876391503011 C 0.0 **** -0.24
1252 H 68.79982798975439 40.01717467891382 98.10643242467177 H 0.0 **** 0.06
1253 H 68.68483894028924 41.38732095317971 96.97516467118157 H 0.0 **** 0.06
1254 H 68.094985884951 39.77893857848761 96.48908486186133 H 0.0 **** 0.06
1255 H 69.84228378303493 40.06957665203538 96.6643374529234 H 0.0 **** 0.06
1256 C 74.33899552767613 51.44106708606077 101.66944160633028 C 0.0 **** -0.24
1257 H 73.45873256305211 52.080739628390276 101.6057618075505 H 0.0 **** 0.06
1258 H 74.03952502758375 50.39902072343825 101.55451205966037 H 0.0 **** 0.06
1259 H 74.8176942570006 51.577737427113576 102.63845328580317 H 0.0 **** 0.06
1260 H 75.0394908780622 51.70800893551032 100.87699578231673 H 0.0 **** 0.06
1261 C 34.63654282970894 92.98762649272174 6.841039318927528 C 0.0 **** -0.24
1262 H 35.61570065465678 92.74932194457628 7.257355190963295 H 0.0 **** 0.06
1263 H 34.65071747275046 92.8237213875426 5.762849518467519 H 0.0 **** 0.06
1264 H 34.398761804194834 94.0317363850285 7.047157598314058 H 0.0 **** 0.06
1265 H 33.88165534181416 92.34643803332665 7.296565638105335 H 0.0 **** 0.06
1266 C 74.07150239772704 46.446735557870625 93.65714550105048 C 0.0 **** -0.24
1267 H 73.61702625635564 46.01320620566108 94.54859306834211 H 0.0 **** 0.06
1268 H 73.85828040103502 47.5148785706408 93.62454470132877 H 0.0 **** 0.06
1269 H 73.65995018639296 45.9653417054713 92.76924022339097 H 0.0 **** 0.06
1270 H 75.14991016504837 46.29092644053463 93.68746339824975 H 0.0 **** 0.06
1271 C 9.002787410654129 8.332896056644671 7.262498508100435 C 0.0 **** -0.24
1272 H 9.424259931584821 7.335114215747581 7.142276830672834 H 0.0 **** 0.06
1273 H 9.447791045712425 8.810843680029706 8.135338018815567 H 0.0 **** 0.06
1274 H 7.923748393271801 8.258038793460145 7.399469995993806 H 0.0 **** 0.06
1275 H 9.216083031030312 8.926798357716052 6.37382590710105 H 0.0 **** 0.06
1276 C 10.266983426308627 93.70603022655149 100.8297625182746 C 0.0 **** -0.24
1277 H 10.40234918137304 93.89069797409124 101.89452765076399 H 0.0 **** 0.06
1278 H 9.905080867911465 94.61379200535526 100.34632059586053 H 0.0 **** 0.06
1279 H 9.540551436345027 92.90509754787729 100.68836083281244 H 0.0 **** 0.06
1280 H 11.219503650738488 93.41402015148563 100.38771128150722 H 0.0 **** 0.06
1281 C 9.533795762673321 0.8517288445596591 48.90535176812486 C 0.0 **** -0.24
1282 H 9.938180608974989 0.08788210443140088 49.56949483806952 H 0.0 **** 0.06
1283 H 10.341298500553705 1.2804343786657455 48.311478984049074 H 0.0 **** 0.06
1284 H 9.06288142485559 1.6360343805333173 49.49860931872672 H 0.0 **** 0.06
1285 H 8.794333554042254 0.40287156018302994 48.24344343103198 H 0.0 **** 0.06
1286 C 105.76396235169096 14.182846661940339 99.62751879492046 C 0.0 **** -0.24
1287 H 106.19158964517723 15.137243536283417 99.93501103916265 H 0.0 **** 0.06
1288 H 105.87749036364733 14.06451873842552 98.54916034164245 H 0.0 **** 0.06
1289 H 104.70619878754403 14.158093898550678 99.88731572072851 H 0.0 **** 0.06
1290 H 106.28300588822157 13.37155327114052 100.13885123308597 H 0.0 **** 0.06
1291 C 78.33329222096663 23.16672286076465 75.71163813146072 C 0.0 **** -0.24
1292 H 77.85000110635792 23.909634939881244 75.07660085322931 H 0.0 **** 0.06
1293 H 78.2525194514925 22.183648044254284 75.24597974964726 H 0.0 **** 0.06
1294 H 77.84609762815751 23.149028864709578 76.68648289357299 H 0.0 **** 0.06
1295 H 79.38506346492693 23.424696159608573 75.83509657652203 H 0.0 **** 0.06
1296 C 86.64329897845002 35.58756613277404 103.61219118398381 C 0.0 **** -0.24
1297 H 85.7390792943238 36.0544003091033 103.2209679625631 H 0.0 **** 0.06
1298 H 86.58482561725506 35.5385642323285 104.699232861622 H 0.0 **** 0.06
1299 H 87.5125383770922 36.17689838063046 103.32027110070572 H 0.0 **** 0.06
1300 H 86.73538794674886 34.5798805704523 103.20659974814998 H 0.0 **** 0.06
1301 C 40.127969033348556 83.13155972285023 49.84921765397457 C 0.0 **** -0.24
1302 H 41.1228927268778 83.30130607323076 49.43780669547186 H 0.0 **** 0.06
1303 H 39.90282171470708 83.90567158934977 50.58317030828874 H 0.0 **** 0.06
1304 H 40.09499716320545 82.15380928806107 50.328407415193176 H 0.0 **** 0.06
1305 H 39.392701506544135 83.1674068192892 49.044875276916365 H 0.0 **** 0.06
1306 C 76.22367785581318 55.40859838356769 85.06595627415635 C 0.0 **** -0.24
1307 H 75.89942057011501 56.26719216352981 84.47849405376894 H 0.0 **** 0.06
1308 H 76.16610093670297 54.507422290576415 84.4555486161677 H 0.0 **** 0.06
1309 H 75.57593686949684 55.299772754746556 85.93708065574481 H 0.0 **** 0.06
1310 H 77.25152058961447 55.56072570647541 85.39427702673788 H 0.0 **** 0.06
1311 C 1.374911169416393 111.00864871108122 72.13230012004112 C 0.0 **** -0.24
1312 H 1.1443599134022264 110.25878336484693 71.37565090247057 H 0.0 **** 0.06
1313 H 1.7076964297883848 111.92597322571473 71.64620579305745 H 0.0 **** 0.06
1314 H 2.166041862268216 110.63551163433652 72.783667135835 H 0.0 **** 0.06
1315 H 0.4836835484141062 111.21402928725846 72.72426383626257 H 0.0 **** 0.06
1316 C 87.81384133663295 44.906815960906385 10.847001736793658 C 0.0 **** -0.24
1317 H 86.76854514674434 44.921274601213156 11.158091558341923 H 0.0 **** 0.06
1318 H 87.89780565829295 45.3189312956182 9.840909808914489 H 0.0 **** 0.06
1319 H 88.17959098961165 43.879784866321245 10.85139666399526 H 0.0 **** 0.06
1320 H 88.40597315909295 45.50757474313343 11.537541939545463 H 0.0 **** 0.06
1321 C 23.64081906767433 106.88358107401444 63.53994600630358 C 0.0 **** -0.24
1322 H 23.941935890319712 106.23443426263776 62.71808469938958 H 0.0 **** 0.06
1323 H 23.018645947882646 106.32168015710613 64.23761284592536 H 0.0 **** 0.06
1324 H 23.073667459149533 107.72853946620347 63.14660841211975 H 0.0 **** 0.06
1325 H 24.527009755197867 107.25028117351451 64.05622981007014 H 0.0 **** 0.06
1326 C 95.73904699920496 10.590433190163509 51.16412868606869 C 0.0 **** -0.24
1327 H 95.18474577848696 10.900601836827576 52.04972877170857 H 0.0 **** 0.06
1328 H 95.75361693399412 9.501362617737783 51.108675609815776 H 0.0 **** 0.06
1329 H 96.76086009357275 10.965564165100034 51.225778888715894 H 0.0 **** 0.06
1330 H 95.2561067403251 10.99345867531919 50.274501195692835 H 0.0 **** 0.06
1331 C 90.66973972308588 85.1323656465936 7.480056893051355 C 0.0 **** -0.24
1332 H 90.88656579880856 84.61296438303174 8.41288360743927 H 0.0 **** 0.06
1333 H 90.85542919963842 86.1990373018808 7.607591156793262 H 0.0 **** 0.06
1334 H 89.62664064240758 84.97461548998072 7.209707043887079 H 0.0 **** 0.06
1335 H 91.31247429084507 84.74345636534412 6.690053201524947 H 0.0 **** 0.06
1336 C 43.953048199588295 22.255521019842377 102.79635834427884 C 0.0 **** -0.24
1337 H 43.24651928309936 23.07771393079757 102.90204926713011 H 0.0 **** 0.06
1338 H 44.44129567810273 22.319387282974446 101.82383046527153 H 0.0 **** 0.06
1339 H 43.421789328101966 21.306958454657632 102.87440343644596 H 0.0 **** 0.06
1340 H 44.70333247046989 22.317347753782485 103.58415583781635 H 0.0 **** 0.06
1341 C 106.30086001845658 60.86195942580523 47.24058224025236 C 0.0 **** -0.24
1342 H 105.2181665787808 60.879418233522735 47.111326150071235 H 0.0 **** 0.06
1343 H 106.70443989564183 61.85751364019756 47.057866579042724 H 0.0 **** 0.06
1344 H 106.73910643100797 60.155333972257374 46.53438422890992 H 0.0 **** 0.06
1345 H 106.54031227617833 60.55384098767484 48.25870239652917 H 0.0 **** 0.06
1346 C 16.278955183546884 94.27590558618078 76.15200536431206 C 0.0 **** -0.24
1347 H 16.286593691832934 94.75569514026986 77.1306853939567 H 0.0 **** 0.06
1348 H 15.563021133488604 94.78275984449354 75.5041687929683 H 0.0 **** 0.06
1349 H 15.99167224925867 93.23048518469082 76.26283244931597 H 0.0 **** 0.06
1350 H 17.273711147697895 94.33413714577026 75.71017210943847 H 0.0 **** 0.06
1351 C 36.933665319738225 109.89733051131682 65.21898212550349 C 0.0 **** -0.24
1352 H 36.13180005651344 109.66984213203244 65.92108473771907 H 0.0 **** 0.06
1353 H 37.78837658766102 109.25011906885445 65.42242282746116 H 0.0 **** 0.06
1354 H 37.23171165701328 110.9393151531838 65.33280795039246 H 0.0 **** 0.06
1355 H 36.584278413034184 109.72815365385624 64.20000567926485 H 0.0 **** 0.06
1356 C 72.38700330741062 116.22132270190693 10.575649816534451 C 0.0 **** -0.24
1357 H 71.75020368328867 115.86114758476742 11.383720417219422 H 0.0 **** 0.06
1358 H 73.40732048150136 115.87283485961157 10.73559997035261 H 0.0 **** 0.06
1359 H 72.37356114615608 117.31096799237775 10.561110481322146 H 0.0 **** 0.06
1360 H 72.0163425667983 115.84022699264474 9.624323576768234 H 0.0 **** 0.06
1361 C 43.52997587954485 110.86885474579873 16.32439553162586 C 0.0 **** -0.24
1362 H 44.611766071770774 110.73945728166126 16.33840230654809 H 0.0 **** 0.06
1363 H 43.09157505077758 110.35278475053866 17.178525753694956 H 0.0 **** 0.06
1364 H 43.12610329258138 110.45281854085431 15.400584477682212 H 0.0 **** 0.06
1365 H 43.29074573273351 111.93100921440825 16.37936648454632 H 0.0 **** 0.06
1366 C 90.64452620589472 15.343565406964345 23.668369217932792 C 0.0 **** -0.24
1367 H 90.96527478532235 15.16531646897667 24.694557118672037 H 0.0 **** 0.06
1368 H 91.52081472496928 15.46341847217667 23.03049720973351 H 0.0 **** 0.06
1369 H 90.03997141796148 16.248793340979333 23.62859776505624 H 0.0 **** 0.06
1370 H 90.05443778033822 14.496684416543065 23.320341758716296 H 0.0 **** 0.06
1371 C 103.14682336462701 91.7359543713684 1.7574864983143357 C 0.0 **** -0.24
1372 H 104.02727551492956 92.35624960140615 1.5906638803337358 H 0.0 **** 0.06
1373 H 103.41688873481095 90.882252817829 2.379641913125539 H 0.0 **** 0.06
1374 H 102.76512085617097 91.38299337869864 0.8004767886501725 H 0.0 **** 0.06
1375 H 102.37869755730989 92.32405598618766 2.260395277744834 H 0.0 **** 0.06
1376 C 78.88584096881192 87.98801606429649 65.34941758800241 C 0.0 **** -0.24
1377 H 78.45584205918837 88.58897165850632 66.15039901641399 H 0.0 **** 0.06
1378 H 78.09392706107812 87.42941723962866 64.84981302482214 H 0.0 **** 0.06
1379 H 79.61384804839318 87.29260930716825 65.76699882700262 H 0.0 **** 0.06
1380 H 79.37869907919122 88.64231280776781 64.62986935603104 H 0.0 **** 0.06
1381 C 9.078123804061875 24.712296117412222 16.27501409141588 C 0.0 **** -0.24
1382 H 8.230286229228767 25.39642601966554 16.282471977068607 H 0.0 **** 0.06
1383 H 9.702175533890383 24.916285121946572 15.404196105997354 H 0.0 **** 0.06
1384 H 8.71499628432474 23.685512595303152 16.22824891430777 H 0.0 **** 0.06
1385 H 9.66466662606041 24.84948738074715 17.183498569018354 H 0.0 **** 0.06
1386 C 3.783104520476286 101.11881889217798 66.48121905377377 C 0.0 **** -0.24
1387 H 4.337846682275313 101.05201882969735 65.54569897915596 H 0.0 **** 0.06
1388 H 4.0603369477829006 102.03436065222189 67.00401198472892 H 0.0 **** 0.06
1389 H 4.020007392514572 100.25740114226966 67.10604341446975 H 0.0 **** 0.06
1390 H 2.7140665751423967 101.13073624005898 66.26975324026537 H 0.0 **** 0.06
1391 C 78.80374289391031 116.16953581278815 8.66366509998727 C 0.0 **** -0.24
1392 H 79.76137784758313 116.18521999097868 8.143111281402128 H 0.0 **** 0.06
1393 H 78.4594651899622 117.19187240772177 8.822267616118324 H 0.0 **** 0.06
1394 H 78.92104125160122 115.67069834638292 9.625698489673653 H 0.0 **** 0.06
1395 H 78.07281822931847 115.62929925390122 8.06162889956613 H 0.0 **** 0.06
1396 C 30.702457166604972 34.3375502273644 47.29359371326706 C 0.0 **** -0.24
1397 H 31.638353265739795 33.97707637181304 46.867227639344776 H 0.0 **** 0.06
1398 H 29.86633917168018 33.81537020611606 46.828471482736916 H 0.0 **** 0.06
1399 H 30.609430134466606 35.40848761677316 47.111818925174475 H 0.0 **** 0.06
1400 H 30.69606323698281 34.14993356226307 48.36751088663436 H 0.0 **** 0.06
1401 C 115.23685527242993 54.66972454050954 27.656602163360077 C 0.0 **** -0.24
1402 H 115.13654178996279 53.97081547804588 26.825193485198866 H 0.0 **** 0.06
1403 H 115.23679007892204 55.69117933672238 27.27380304508219 H 0.0 **** 0.06
1404 H 116.17158561436815 54.477012257984676 28.181909743827163 H 0.0 **** 0.06
1405 H 114.4001261182466 54.53807394117742 28.343255974378252 H 0.0 **** 0.06
1406 C 84.47909781299268 40.44442908323751 58.77884288564329 C 0.0 **** -0.24
1407 H 84.96794599383108 41.088276382513804 59.50973210697156 H 0.0 **** 0.06
1408 H 83.70146638772488 39.86098630197275 59.27212259569682 H 0.0 **** 0.06
1409 H 85.21472775508329 39.77061130138067 58.33858931914104 H 0.0 **** 0.06
1410 H 84.03349254216991 41.05716943644093 57.99500604956942 H 0.0 **** 0.06
1411 C 84.50667113963388 112.42342211994936 7.426239773226968 C 0.0 **** -0.24
1412 H 84.11102635030858 113.26499787175274 6.857002159088466 H 0.0 **** 0.06
1413 H 83.73965758778004 111.65416841312643 7.517206386013044 H 0.0 **** 0.06
1414 H 84.80144532319429 112.76370446983796 8.419518252324451 H 0.0 **** 0.06
1415 H 85.37521012355168 112.01294941734686 6.911066823889541 H 0.0 **** 0.06
1416 C 26.429855369744757 32.224364579890405 7.423090842108337 C 0.0 **** -0.24
1417 H 26.943726741770263 32.60273864115972 8.30609150997887 H 0.0 **** 0.06
1418 H 25.81054917952457 31.371500766252012 7.700626631074073 H 0.0 **** 0.06
1419 H 27.16528623910142 31.91319794425891 6.680336643233673 H 0.0 **** 0.06
1420 H 25.800882943239344 33.0095876309518 7.004434211365691 H 0.0 **** 0.06
1421 C 114.02724730254046 6.9255545930248275 55.81072418475819 C 0.0 **** -0.24
1422 H 114.61878312664551 7.745730391151994 55.40357063856665 H 0.0 **** 0.06
1423 H 114.20403079587442 6.0240177542791 55.22343725487983 H 0.0 **** 0.06
1424 H 112.97003370315102 7.1858256588151335 55.76775564310838 H 0.0 **** 0.06
1425 H 114.31624622614994 6.749164446613037 56.84650846138825 H 0.0 **** 0.06
1426 C 94.22985020755198 89.25570934373621 37.83741199208737 C 0.0 **** -0.24
1427 H 94.77815808867146 88.35543137705383 38.11454374104909 H 0.0 **** 0.06
1428 H 93.96825220794526 89.21141222835124 36.7789388598014 H 0.0 **** 0.06
1429 H 94.85145603197279 90.13128533830047 38.02179143616647 H 0.0 **** 0.06
1430 H 93.31942175293469 89.32510355622799 38.433757117346914 H 0.0 **** 0.06
1431 C 13.01342971458098 71.34228777248532 74.75002639839829 C 0.0 **** -0.24
1432 H 13.200792716457983 72.26079689393333 74.19336573378158 H 0.0 **** 0.06
1433 H 13.709163270727174 71.2777876609899 75.58824395795381 H 0.0 **** 0.06
1434 H 13.155243957774672 70.48438457209528 74.09282492255662 H 0.0 **** 0.06
1435 H 11.990376502863313 71.34845325723126 75.12629636387533 H 0.0 **** 0.06
1436 C 38.555517803173814 17.590892700525615 73.568008443212 C 0.0 **** -0.24
1437 H 39.16160904995627 17.8373448388071 72.69616630457901 H 0.0 **** 0.06
1438 H 38.72649820375608 18.331538361089997 74.34927643647458 H 0.0 **** 0.06
1439 H 38.832694428732 16.603041564558566 73.93524839766991 H 0.0 **** 0.06
1440 H 37.50189370379496 17.59295918646177 73.28964371157568 H 0.0 **** 0.06
1441 C 92.52538644678893 8.354137448164852 40.91823733396856 C 0.0 **** -0.24
1442 H 92.30993514227245 9.079349504485315 40.13240893215806 H 0.0 **** 0.06
1443 H 93.36526017825904 8.707367213947794 41.51733321066939 H 0.0 **** 0.06
1444 H 92.77889761659435 7.395022755292201 40.466691039905925 H 0.0 **** 0.06
1445 H 91.64801045742396 8.236758367431413 41.554303755461035 H 0.0 **** 0.06
1446 C 9.724334793769629 61.80544967192742 17.655945796496997 C 0.0 **** -0.24
1447 H 10.043067114680085 62.80969782878728 17.379398831012264 H 0.0 **** 0.06
1448 H 10.597837225545902 61.20774465832247 17.921489274243783 H 0.0 **** 0.06
1449 H 9.210117701059175 61.34226975271932 16.813382948003788 H 0.0 **** 0.06
1450 H 9.048231964750713 61.86005944497319 18.50903763718748 H 0.0 **** 0.06
1451 C 35.989083603872245 6.359803672534497 69.69891011518024 C 0.0 **** -0.24
1452 H 36.72136836275686 5.752147558826607 70.23002499328294 H 0.0 **** 0.06
1453 H 36.36878638948633 7.37613586029147 69.59230024043876 H 0.0 **** 0.06
1454 H 35.05543176545541 6.378398579971247 70.26158184110352 H 0.0 **** 0.06
1455 H 35.810260734311015 5.9330820893295595 68.7124122756681 H 0.0 **** 0.06
1456 C 83.34612924540102 37.844318399523814 80.39600743422966 C 0.0 **** -0.24
1457 H 84.00621541083166 38.0781052829243 81.23126781783634 H 0.0 **** 0.06
1458 H 82.3661333440105 38.28826427736533 80.57111328328361 H 0.0 **** 0.06
1459 H 83.24386369867702 36.762735492672846 80.30597324465359 H 0.0 **** 0.06
1460 H 83.76902659081418 38.247628672432 79.47524270080382 H 0.0 **** 0.06
1461 C 98.02266683638314 0.120483106180588 7.4293954170062015 C 0.0 **** -0.24
1462 H 97.32825503683367 0.08122346517975032 6.5898735743743195 H 0.0 **** 0.06
1463 H 99.02549294421374 0.3363532514486316 7.060837629575657 H 0.0 **** 0.06
1464 H 98.02258882620632 -0.8396317113912319 7.945794021426828 H 0.0 **** 0.06
1465 H 97.71220736875401 0.9043009195461682 8.120448621710022 H 0.0 **** 0.06
1466 C 96.19506363210229 31.00195667838301 16.989699184827103 C 0.0 **** -0.24
1467 H 95.51539333296375 31.036909022990613 16.138212491340468 H 0.0 **** 0.06
1468 H 95.62262485451402 31.07403619679411 17.914861005836045 H 0.0 **** 0.06
1469 H 96.89553173963998 31.83566522993253 16.928703081169886 H 0.0 **** 0.06
1470 H 96.74681438290006 30.062306710756815 16.9753471081643 H 0.0 **** 0.06
1471 C 110.0549018849899 104.2962532177535 0.8039368717238062 C 0.0 **** -0.24
1472 H 110.62933716365617 103.44707843235028 0.43346653218821984 H 0.0 **** 0.06
1473 H 109.38818947130142 103.9647646116135 1.599451658695898 H 0.0 **** 0.06
1474 H 109.4671916907757 104.72069845036594 -0.010362194102754074 H 0.0 **** 0.06
1475 H 110.7370834704382 105.05328703306415 1.1924701769727335 H 0.0 **** 0.06
1476 C 89.92788714376496 100.6032647359255 97.11935443323432 C 0.0 **** -0.24
1477 H 89.10598087838153 101.23682992063837 97.45202722156478 H 0.0 **** 0.06
1478 H 90.70194166377098 101.22132235154561 96.6637730635851 H 0.0 **** 0.06
1479 H 89.55889807155697 99.88367426253413 96.38737104758846 H 0.0 **** 0.06
1480 H 90.34478882513031 100.06982144944763 97.97432126599631 H 0.0 **** 0.06
1481 C 46.84601663956904 74.26013296957746 13.598308136459906 C 0.0 **** -0.24
1482 H 47.67440722534532 73.78642228112304 13.07121971239954 H 0.0 **** 0.06
1483 H 45.90273988422078 73.88010827957865 13.207438468557655 H 0.0 **** 0.06
1484 H 46.89193022826252 75.33981346536558 13.452716283550302 H 0.0 **** 0.06
1485 H 46.91632474373108 74.03401714320938 14.662290923202335 H 0.0 **** 0.06
1486 C 100.71032940327635 64.1226344416759 75.18769414753729 C 0.0 **** -0.24
1487 H 99.98121456568393 63.6352281645768 74.53874671682007 H 0.0 **** 0.06
1488 H 100.18846499502581 64.71001150447466 75.94272570420304 H 0.0 **** 0.06
1489 H 101.3454714884623 64.7777573868099 74.59167115458257 H 0.0 **** 0.06
1490 H 101.32412806849337 63.36554399108971 75.67566874797046 H 0.0 **** 0.06
1491 C 50.51085943236697 66.46388596942057 7.574857711932211 C 0.0 **** -0.24
1492 H 51.35491602225244 65.7902218583894 7.719201208770471 H 0.0 **** 0.06
1493 H 49.71404310359031 65.9386223508433 7.047711746176475 H 0.0 **** 0.06
1494 H 50.82975207656125 67.3256436194338 6.98858798284202 H 0.0 **** 0.06
1495 H 50.14479306994167 66.79987857062684 8.54471044359633 H 0.0 **** 0.06
1496 C 0.3896474727321646 100.70408992937317 95.52357909110833 C 0.0 **** -0.24
1497 H 1.307401166763995 100.12765474196127 95.40434555724681 H 0.0 **** 0.06
1498 H -0.3986106671127203 100.2616910356794 94.9128988154018 H 0.0 **** 0.06
1499 H 0.5624889026695143 101.73174443542086 95.20572070042351 H 0.0 **** 0.06
1500 H 0.08741565525946271 100.69287214334813 96.57085940914715 H 0.0 **** 0.06
1501 C 92.46791263146025 47.26526740040836 68.28246331046805 C 0.0 **** -0.24
1502 H 91.60989930673878 46.77114672651959 68.73846316759409 H 0.0 **** 0.06
1503 H 92.20817360679888 48.29702592750826 68.04329807631174 H 0.0 **** 0.06
1504 H 92.74701782730801 46.739057829975565 67.36939717640496 H 0.0 **** 0.06
1505 H 93.30636949090461 47.2538436921013 68.98009620777967 H 0.0 **** 0.06
1506 C 11.8921770503527 26.524961690629496 4.166817885576364 C 0.0 **** -0.24
1507 H 12.42422165599939 27.474077620531702 4.227253157739099 H 0.0 **** 0.06
1508 H 11.352083214152088 26.35126170069671 5.0971430356256775 H 0.0 **** 0.06
1509 H 12.606618563949525 25.71730467778802 4.00509749648495 H 0.0 **** 0.06
1510 H 11.186627278030528 26.55745558643784 3.3362857296732784 H 0.0 **** 0.06
1511 C 98.5836923799148 54.28682696377743 113.51198235548368 C 0.0 **** -0.24
1512 H 99.40645501382721 53.678892128884684 113.88789568917912 H 0.0 **** 0.06
1513 H 98.24708363924913 54.96629982822324 114.29549635840397 H 0.0 **** 0.06
1514 H 97.76004983723692 53.638451778509676 113.2128109052129 H 0.0 **** 0.06
1515 H 98.92276181554496 54.86419906408304 112.65126265513803 H 0.0 **** 0.06
1516 C 28.64473721779744 70.45133032703168 37.159172650846756 C 0.0 **** -0.24
1517 H 29.35922090470072 70.99915769476974 36.545781968757424 H 0.0 **** 0.06
1518 H 28.69458466809651 70.81433797345093 38.18626792802227 H 0.0 **** 0.06
1519 H 28.887045155644103 69.3886417977115 37.137196722375656 H 0.0 **** 0.06
1520 H 27.638722662677083 70.60267500527209 36.76803653625062 H 0.0 **** 0.06
1521 C 73.28781415249026 90.18853479723873 3.8760217228300036 C 0.0 **** -0.24
1522 H 72.6820398256836 89.74850773343442 4.667336790165564 H 0.0 **** 0.06
1523 H 73.71990573182111 91.12582331896948 4.228117053895886 H 0.0 **** 0.06
1524 H 72.66299045174631 90.38143859253864 3.0043673227804106 H 0.0 **** 0.06
1525 H 74.08770372885061 89.49861669482769 3.6044269358945797 H 0.0 **** 0.06
1526 C 20.423408033062543 29.96495181653315 91.8062137638619 C 0.0 **** -0.24
1527 H 21.100468426636894 30.09423967502589 90.96182473069521 H 0.0 **** 0.06
1528 H 19.65413540799338 30.73795548803168 91.7768362566998 H 0.0 **** 0.06
1529 H 20.984303131991226 30.045435520415808 92.73784409812069 H 0.0 **** 0.06
1530 H 19.953496074812733 28.982677518015734 91.74786158930678 H 0.0 **** 0.06
1531 C 3.209466752133551 22.912937199737428 27.323176077624566 C 0.0 **** -0.24
1532 H 3.34249624335024 22.403990700590185 28.27689064489428 H 0.0 **** 0.06
1533 H 2.239522938632774 22.648009976977903 26.90269954827906 H 0.0 **** 0.06
1534 H 3.9982906453670637 22.610184215697473 26.63548400473198 H 0.0 **** 0.06
1535 H 3.2561630634127425 23.991312151455475 27.47764915496137 H 0.0 **** 0.06
1536 C 2.785628818082902 17.912870064995985 53.24029719289684 C 0.0 **** -0.24
1537 H 2.8229419871665993 18.515946364710658 54.14752631094385 H 0.0 **** 0.06
1538 H 2.6591318355266775 18.564829116835597 52.37625966767682 H 0.0 **** 0.06
1539 H 1.9461717903477265 17.219687182599685 53.29954573850663 H 0.0 **** 0.06
1540 H 3.7146090504873523 17.35153752170983 53.14000525858274 H 0.0 **** 0.06
1541 C 14.31637462340504 6.371568034790323 71.58034283564137 C 0.0 **** -0.24
1542 H 14.206081050531552 6.507045481512867 70.50429768264195 H 0.0 **** 0.06
1543 H 14.796539676737709 7.251782806917522 72.00968364753328 H 0.0 **** 0.06
1544 H 14.930412801368547 5.492641519287991 71.77513561423666 H 0.0 **** 0.06
1545 H 13.333890013921987 6.236056644031846 72.03162497965315 H 0.0 **** 0.06
1546 C 8.21074729435179 1.9459942644242858 58.95026931420517 C 0.0 **** -0.24
1547 H 8.137634601806411 2.8038441829768175 59.61794210455042 H 0.0 **** 0.06
1548 H 8.60350671654254 1.08991969484687 59.499135735906606 H 0.0 **** 0.06
1549 H 8.880056973699027 2.1848900692938003 58.12356541613451 H 0.0 **** 0.06
1550 H 7.22255827421958 1.7043150651981591 58.55859138005792 H 0.0 **** 0.06
1551 C 25.642455175142246 49.53061772289324 18.216842755932483 C 0.0 **** -0.24
1552 H 25.839088464111086 50.452681551794846 18.763785719302707 H 0.0 **** 0.06
1553 H 24.6525404005409 49.15680216353009 18.478769543208344 H 0.0 **** 0.06
1554 H 26.3941934566908 48.785790978434314 18.48086686124371 H 0.0 **** 0.06
1555 H 25.686955664082376 49.72743441125011 17.145431586452194 H 0.0 **** 0.06
1556 C 16.161252107429164 5.07971066547924 94.60267314360797 C 0.0 **** -0.24
1557 H 16.846747835106044 4.454629474014951 94.03133172528766 H 0.0 **** 0.06
1558 H 16.605490479896446 6.065085877362563 94.74889905750425 H 0.0 **** 0.06
1559 H 15.972665205732653 4.619087230469717 95.57171799320915 H 0.0 **** 0.06
1560 H 15.222150830136115 5.18088380120156 94.05906415999354 H 0.0 **** 0.06
1561 C 41.62540344278911 46.1107175883825 109.93894607494332 C 0.0 **** -0.24
1562 H 42.47577605947703 46.43699599005879 110.53880677491816 H 0.0 **** 0.06
1563 H 40.74039528898864 46.04192724218319 110.57142881435118 H 0.0 **** 0.06
1564 H 41.84077855265443 45.13395171797856 109.50589647592709 H 0.0 **** 0.06
1565 H 41.44688477303097 46.8308306517996 109.14026075585674 H 0.0 **** 0.06
1566 C 31.391901288267746 61.30871422097752 62.535961026911984 C 0.0 **** -0.24
1567 H 31.47369225489348 60.296759358357434 62.93250428115362 H 0.0 **** 0.06
1568 H 32.36578389648622 61.796770619163965 62.58371697666056 H 0.0 **** 0.06
1569 H 30.673235304853677 61.87397324211929 63.12935415902921 H 0.0 **** 0.06
1570 H 31.05571848322691 61.266933945198474 61.50094152220807 H 0.0 **** 0.06
1571 C 11.932258753459678 85.6621873582593 36.755705616193836 C 0.0 **** -0.24
1572 H 12.146317620170805 85.40308296525359 35.71977001721086 H 0.0 **** 0.06
1573 H 12.493411581506678 86.55606494984045 37.030116593501816 H 0.0 **** 0.06
1574 H 12.22319664884327 84.83704093222389 37.40494087320806 H 0.0 **** 0.06
1575 H 10.86476087499608 85.85493282607126 36.869242024062885 H 0.0 **** 0.06
1576 C 102.96653331518226 58.96600587325793 0.42234997660165163 C 0.0 **** -0.24
1577 H 103.3840513080003 58.64945530844744 -0.5328041250322713 H 0.0 **** 0.06
1578 H 101.90342348709231 58.726167744044915 0.45193306887273366 H 0.0 **** 0.06
1579 H 103.09997444268285 60.04189498612976 0.539166495505583 H 0.0 **** 0.06
1580 H 103.47961828280242 58.44681758488855 1.2321192819197222 H 0.0 **** 0.06
1581 C 95.95883719474136 16.91277146853602 32.93194149754828 C 0.0 **** -0.24
1582 H 95.21842687417791 17.711747450250073 32.95947072133799 H 0.0 **** 0.06
1583 H 96.47049076184888 16.85742827807468 33.89260933945684 H 0.0 **** 0.06
1584 H 96.6850005766016 17.11791871091461 32.14427632980522 H 0.0 **** 0.06
1585 H 95.46216025987638 15.964758769258907 32.72920073254636 H 0.0 **** 0.06
1586 C 95.04280486181656 78.73959604087548 44.75879072848775 C 0.0 **** -0.24
1587 H 95.15461454604775 78.4007160318487 43.72807690171448 H 0.0 **** 0.06
1588 H 94.8048234336685 79.80334737630443 44.76659526709903 H 0.0 **** 0.06
1589 H 95.97277797299694 78.5689480236201 45.3000459028599 H 0.0 **** 0.06
1590 H 94.2363140996583 78.18357931549141 45.237196453084636 H 0.0 **** 0.06
1591 C 73.93187847266776 56.31624217690796 26.63771241765312 C 0.0 **** -0.24
1592 H 73.83805828584354 56.82803820948797 27.59537495972492 H 0.0 **** 0.06
1593 H 74.80909535257035 55.66963301158617 26.65618102860475 H 0.0 **** 0.06
1594 H 74.03918434989862 57.05243579352165 25.8414961560039 H 0.0 **** 0.06
1595 H 73.03987635891309 55.71490555007932 26.458353745204533 H 0.0 **** 0.06
1596 C 102.38544325425207 24.302801313204526 14.434579927749894 C 0.0 **** -0.24
1597 H 103.00634402619232 25.171856474945088 14.650770326035456 H 0.0 **** 0.06
1598 H 101.6789663291712 24.548364994374595 13.641097192145224 H 0.0 **** 0.06
1599 H 101.83758415227373 24.0163032083739 15.333222405871439 H 0.0 **** 0.06
1600 H 103.0180822218311 23.474215669575045 14.115266961273306 H 0.0 **** 0.06
1601 C 87.75381644568444 60.81823608667617 79.15884089152647 C 0.0 **** -0.24
1602 H 88.1271553972303 61.38243230638407 80.0136710719978 H 0.0 **** 0.06
1603 H 87.65965344122657 61.481540011857284 78.29930196267779 H 0.0 **** 0.06
1604 H 86.77941860507894 60.394839313008 79.40093992206269 H 0.0 **** 0.06
1605 H 88.45067120349242 60.013228091323874 78.9230367233892 H 0.0 **** 0.06
1606 C 0.8364409342632833 10.13808384380496 95.21833203046796 C 0.0 **** -0.24
1607 H 1.3384251916570218 9.37913981702495 95.81769059034681 H 0.0 **** 0.06
1608 H -0.2322775347838668 9.922424674619652 95.18121013990356 H 0.0 **** 0.06
1609 H 1.2439789446320635 10.130953985934696 94.20756010622856 H 0.0 **** 0.06
1610 H 0.9941888732742363 11.118501317023629 95.6672820337819 H 0.0 **** 0.06
1611 C 103.65944083204113 12.183650781104365 52.17696607093798 C 0.0 **** -0.24
1612 H 103.18719261563746 11.238817716622446 51.909964189510326 H 0.0 **** 0.06
1613 H 103.85689430404898 12.758711277724032 51.27215861529615 H 0.0 **** 0.06
1614 H 104.59831803353663 11.985643638579834 52.695357635476135 H 0.0 **** 0.06
1615 H 102.99583270664607 12.749852096114402 52.83091662073877 H 0.0 **** 0.06
1616 C 63.239212977823684 78.8960365413993 102.65752725291051 C 0.0 **** -0.24
1617 H 64.28812241817366 79.16146383843 102.5226667894591 H 0.0 **** 0.06
1618 H 62.99165755375151 78.05594461181718 102.00866684838974 H 0.0 **** 0.06
1619 H 62.61244740732991 79.75031085430808 102.40159897354295 H 0.0 **** 0.06
1620 H 63.06658037195501 78.61684410868139 103.69714764555124 H 0.0 **** 0.06
1621 C 10.141702964185416 64.78030747823618 28.606507084407895 C 0.0 **** -0.24
1622 H 9.940972772941056 63.87208777433898 29.17437528885543 H 0.0 **** 0.06
1623 H 10.536726065962004 65.5467420479992 29.273071969127358 H 0.0 **** 0.06
1624 H 9.216586688172242 65.13560941617777 28.15158903918754 H 0.0 **** 0.06
1625 H 10.871490068361627 64.56570739341419 27.82566807031384 H 0.0 **** 0.06
1626 C 97.28970875415482 88.67193489926282 87.57062090559228 C 0.0 **** -0.24
1627 H 97.12341129358578 88.78501655279933 86.49977189438431 H 0.0 **** 0.06
1628 H 98.28354793737859 88.25924889982065 87.74171112251878 H 0.0 **** 0.06
1629 H 96.53978155215836 87.99751765468736 87.98451649935848 H 0.0 **** 0.06
1630 H 97.21114809533367 89.64517137706267 88.05526402627237 H 0.0 **** 0.06
1631 C 3.4498241943409624 40.36338794837525 98.93355732532771 C 0.0 **** -0.24
1632 H 2.450433589507213 40.6912114198783 98.64514055558249 H 0.0 **** 0.06
1633 H 4.193444912187815 40.9390024106624 98.38313282023984 H 0.0 **** 0.06
1634 H 3.564627729887377 39.30426134405769 98.70442655373841 H 0.0 **** 0.06
1635 H 3.5875442848436023 40.520210159799035 100.00420854660646 H 0.0 **** 0.06
1636 C 76.97313041996682 24.9447752937252 5.321891013184912 C 0.0 **** -0.24
1637 H 77.02382098051896 23.959687089332448 5.783759562400039 H 0.0 **** 0.06
1638 H 76.0433688125741 25.43458338046176 5.611712289316813 H 0.0 **** 0.06
1639 H 77.00760304104713 24.83980510925261 4.237876337469277 H 0.0 **** 0.06
1640 H 77.81983600224922 25.54585640801801 5.656183137044438 H 0.0 **** 0.06
1641 C 112.32573958048393 46.2168436567368 88.55222700098292 C 0.0 **** -0.24
1642 H 111.55509584485836 46.74373491365427 87.98833615932446 H 0.0 **** 0.06
1643 H 112.18388760124812 46.398480527091316 89.61805066657999 H 0.0 **** 0.06
1644 H 113.30830738261228 46.57802734213806 88.24904915232597 H 0.0 **** 0.06
1645 H 112.25398659540483 45.14725096286458 88.35307131707003 H 0.0 **** 0.06
1646 C 2.86484798814017 100.75028911818117 8.491662660938417 C 0.0 **** -0.24
1647 H 2.054546420103648 101.38974951842084 8.83904806470014 H 0.0 **** 0.06
1648 H 3.7271299289130013 101.36515637036234 8.232124356634465 H 0.0 **** 0.06
1649 H 2.5380422481080984 100.19319665766585 7.613169627089288 H 0.0 **** 0.06
1650 H 3.1405739781381072 100.05209311461542 9.282824188000703 H 0.0 **** 0.06
1651 C 97.05635631303227 88.56404000336605 47.973735895220045 C 0.0 **** -0.24
1652 H 97.68613473244451 88.86345438954748 47.13522280237302 H 0.0 **** 0.06
1653 H 96.35363452375816 89.36501925067199 48.204387852954596 H 0.0 **** 0.06
1654 H 97.68191769620782 88.36753222042151 48.845435792610544 H 0.0 **** 0.06
1655 H 96.50654426740925 87.66115803332386 47.71024251925826 H 0.0 **** 0.06
1656 C 16.608352807613585 69.73573345359378 75.17848494969564 C 0.0 **** -0.24
1657 H 16.414689653302162 70.76541991149682 75.48192431253415 H 0.0 **** 0.06
1658 H 15.946970111855563 69.06530852687757 75.72774476122169 H 0.0 **** 0.06
1659 H 17.645394145762424 69.48188192429816 75.39630502479224 H 0.0 **** 0.06
1660 H 16.425341954794987 69.63150634966507 74.10956884623693 H 0.0 **** 0.06
1661 C 37.240137668314546 44.05697506241279 82.25688305135517 C 0.0 **** -0.24
1662 H 37.95350035471971 43.26313165229982 82.4789963127231 H 0.0 **** 0.06
1663 H 37.595695023803586 44.63710126033487 81.40585339533177 H 0.0 **** 0.06
1664 H 37.14036999442246 44.7080720784694 83.12519983562069 H 0.0 **** 0.06
1665 H 36.27121434244968 43.61751690184849 82.01963405561452 H 0.0 **** 0.06
1666 C 50.72001124757378 54.48736265723439 23.150044828976135 C 0.0 **** -0.24
1667 H 49.89458798838916 53.82653578816861 22.88298991125005 H 0.0 **** 0.06
1668 H 50.32385536739076 55.40494123607771 23.585545760726006 H 0.0 **** 0.06
1669 H 51.29654939460545 54.72753018298903 22.256153141536657 H 0.0 **** 0.06
1670 H 51.36374721535526 53.98896705147484 23.874433368476843 H 0.0 **** 0.06
1671 C 19.748354171695922 10.51999850674575 100.65673022390135 C 0.0 **** -0.24
1672 H 20.69372257200874 10.019962109215747 100.44346930384333 H 0.0 **** 0.06
1673 H 18.958498678627194 10.078848406058164 100.04838009327386 H 0.0 **** 0.06
1674 H 19.83758956486244 11.580636910616612 100.42338467880103 H 0.0 **** 0.06
1675 H 19.504340979674424 10.399143529982734 101.71238766294124 H 0.0 **** 0.06
1676 C 0.9848022164006949 41.89502294889219 82.40531242673919 C 0.0 **** -0.24
1677 H 2.040264564980518 41.709549984400184 82.20293394880781 H 0.0 **** 0.06
1678 H 0.3790627176540653 41.15448742667965 81.88213958846345 H 0.0 **** 0.06
1679 H 0.7186378599175782 42.89315422327881 82.05807268899517 H 0.0 **** 0.06
1680 H 0.8023577814622627 41.82277012077347 83.4767835801295 H 0.0 **** 0.06
1681 C 43.21101399540774 9.581029066460601 111.2375628473125 C 0.0 **** -0.24
1682 H 42.948851322779404 8.544446061912282 111.0242733510121 H 0.0 **** 0.06
1683 H 44.19441859178956 9.616987296236829 111.70761544211939 H 0.0 **** 0.06
1684 H 42.47013225492165 10.012536694657328 111.91040931026349 H 0.0 **** 0.06
1685 H 43.23240326829817 10.148144862568529 110.30698660914699 H 0.0 **** 0.06
1686 C 27.939901355208626 48.00316639704704 41.93039566138643 C 0.0 **** -0.24
1687 H 27.79118392091179 48.362092113548044 42.949218741686735 H 0.0 **** 0.06
1688 H 27.513134544325467 47.004900429104225 41.83128393640291 H 0.0 **** 0.06
1689 H 29.00751892871873 47.96610378210846 41.711406838305805 H 0.0 **** 0.06
1690 H 27.448501684646075 48.67967699830052 41.23200775712368 H 0.0 **** 0.06
1691 C 6.926455999045734 115.74032020457695 90.15343945284391 C 0.0 **** -0.24
1692 H 6.000251717994317 115.60544775860694 90.71160787636057 H 0.0 **** 0.06
1693 H 7.773287503065031 115.68023974499708 90.83663976918251 H 0.0 **** 0.06
1694 H 6.919211399707359 116.71601046635965 89.66699621262083 H 0.0 **** 0.06
1695 H 7.012279441933959 114.95894828472865 89.39753053328945 H 0.0 **** 0.06
1696 C 13.060941486395393 22.81899119335489 17.68159428158046 C 0.0 **** -0.24
1697 H 12.566719587346967 22.08839373003363 17.040372721066433 H 0.0 **** 0.06
1698 H 13.61748050984042 22.29958764637007 18.461340523779484 H 0.0 **** 0.06
1699 H 12.312796374817339 23.467415493842537 18.137694917041642 H 0.0 **** 0.06
1700 H 13.747616199899028 23.42014688658122 17.08470928572592 H 0.0 **** 0.06
1701 C 75.18376001861378 74.46476422418138 73.84582345694929 C 0.0 **** -0.24
1702 H 74.78428288935248 73.46081948339128 73.70761398529939 H 0.0 **** 0.06
1703 H 75.57514558190414 74.56429100445766 74.85869204551759 H 0.0 **** 0.06
1704 H 74.39077274634386 75.19640135291894 73.68786042475054 H 0.0 **** 0.06
1705 H 75.98534562273005 74.63829947532699 73.12765285064205 H 0.0 **** 0.06
1706 C 0.6884554818390001 50.84694310873658 74.87056613567802 C 0.0 **** -0.24
1707 H 0.8348951501717607 51.81942732384067 75.34187061219572 H 0.0 **** 0.06
1708 H 1.6356447267753254 50.30862747213081 74.84699198947575 H 0.0 **** 0.06
1709 H 0.32475485278295935 50.98752314573062 73.85331788804137 H 0.0 **** 0.06
1710 H -0.04159431560151461 50.27382358788253 75.44161100271822 H 0.0 **** 0.06
1711 C 64.90600367419225 71.31814065274244 26.401280442005273 C 0.0 **** -0.24
1712 H 65.18287416631787 71.00397133467638 27.408040782530875 H 0.0 **** 0.06
1713 H 65.6057020797769 70.89030978472314 25.68271109630028 H 0.0 **** 0.06
1714 H 64.93995059464473 72.40627386029996 26.337973587408143 H 0.0 **** 0.06
1715 H 63.897545555017935 70.97151018491795 26.177116518588548 H 0.0 **** 0.06
1716 C 25.81581425818115 53.99310387165795 40.77496790148018 C 0.0 **** -0.24
1717 H 25.32666669737415 54.07083418473971 39.803890335645804 H 0.0 **** 0.06
1718 H 26.896676427694842 53.950704349748094 40.63563629721648 H 0.0 **** 0.06
1719 H 25.478472870249163 53.08772280383246 41.27931288485439 H 0.0 **** 0.06
1720 H 25.561441037406325 54.86315414831137 41.38103208820428 H 0.0 **** 0.06
1721 C 59.891913040291655 22.466886797692695 14.6647718347579 C 0.0 **** -0.24
1722 H 59.44652045919736 21.827304389020185 15.427822192479951 H 0.0 **** 0.06
1723 H 59.87817134181765 21.949386739862945 13.704657820436381 H 0.0 **** 0.06
1724 H 60.92122887576565 22.697036596019387 14.93932042979209 H 0.0 **** 0.06
1725 H 59.32038918203824 23.391172681548483 14.587726532106046 H 0.0 **** 0.06
1726 C 86.73143666608019 93.25779970926297 32.34910791387057 C 0.0 **** -0.24
1727 H 86.16517056653501 93.35930337608755 33.275387960557254 H 0.0 **** 0.06
1728 H 86.1917509143423 93.7497691623511 31.53907495776275 H 0.0 **** 0.06
1729 H 86.85647768801496 92.20104754996157 32.11428341106179 H 0.0 **** 0.06
1730 H 87.70940895806785 93.72258735794469 32.469130957738514 H 0.0 **** 0.06
1731 C 30.848566806435457 55.466131599956405 63.074458392803024 C 0.0 **** -0.24
1732 H 30.663217654713662 55.75415251575837 62.03986253650535 H 0.0 **** 0.06
1733 H 31.86157376101744 55.75712662994551 63.355643160560476 H 0.0 **** 0.06
1734 H 30.73938532316646 54.386164782875746 63.17530511492774 H 0.0 **** 0.06
1735 H 30.1324382925674 55.96709618945403 63.72447554177646 H 0.0 **** 0.06
1736 C 6.149159260441673 115.91512719361337 18.642011527095633 C 0.0 **** -0.24
1737 H 6.817964313624589 116.70859040995344 18.974309351630836 H 0.0 **** 0.06
1738 H 5.23412508047808 115.93932507524529 19.23444204666407 H 0.0 **** 0.06
1739 H 6.639758431025118 114.95011839210288 18.77145829599175 H 0.0 **** 0.06
1740 H 5.9057358393701715 116.06142020839539 17.589566104033736 H 0.0 **** 0.06
1741 C 38.49411299446588 12.898550193249008 29.346499219159874 C 0.0 **** -0.24
1742 H 39.04926964443213 13.835393034010195 29.31557225488737 H 0.0 **** 0.06
1743 H 37.71751486479823 12.910697172472851 28.580894989415064 H 0.0 **** 0.06
1744 H 38.03593981604337 12.780378060904042 30.328113508654795 H 0.0 **** 0.06
1745 H 39.1745130287199 12.0672860401572 29.160987275241965 H 0.0 **** 0.06
1746 C 77.30366267685369 23.61483855565757 85.7189891023911 C 0.0 **** -0.24
1747 H 77.66457527898947 24.114305382919042 84.82078764736437 H 0.0 **** 0.06
1748 H 76.56345229643912 22.862806954076632 85.4439125896327 H 0.0 **** 0.06
1749 H 76.84744105519724 24.34858108892479 86.38388211702133 H 0.0 **** 0.06
1750 H 78.13883543294065 23.13270394194447 86.22835608563744 H 0.0 **** 0.06
1751 C 15.813376481123797 43.52860853603724 15.352834892739665 C 0.0 **** -0.24
1752 H 14.753190690695718 43.55807111092409 15.603412197221523 H 0.0 **** 0.06
1753 H 16.208041251285657 42.533421885195196 15.559460781497314 H 0.0 **** 0.06
1754 H 16.349124047946745 44.2637259463601 15.954571533359143 H 0.0 **** 0.06
1755 H 15.943381652502392 43.76040512360868 14.295485852637334 H 0.0 **** 0.06
1756 C 28.555524738210366 31.121720653941452 19.857061462315187 C 0.0 **** -0.24
1757 H 28.504689439320998 30.42353194759221 19.021296367173885 H 0.0 **** 0.06
1758 H 29.08476871402388 30.655165814399737 20.688394371913695 H 0.0 **** 0.06
1759 H 27.545855740568953 31.38675111381417 20.171152768771783 H 0.0 **** 0.06
1760 H 29.087683690527214 32.0205638029328 19.54584160342962 H 0.0 **** 0.06
1761 C 29.80893523211961 110.78399343763411 89.50967217655335 C 0.0 **** -0.24
1762 H 28.719776704088666 110.77385482282135 89.52412160851878 H 0.0 **** 0.06
1763 H 30.18443008370221 111.00627939032094 90.50840062974686 H 0.0 **** 0.06
1764 H 30.155715077393303 111.54655147523665 88.81279707879122 H 0.0 **** 0.06
1765 H 30.176898505924562 109.80776638025121 89.19213667749779 H 0.0 **** 0.06
1766 C 74.79108290047165 89.68635278621713 44.3989563748691 C 0.0 **** -0.24
1767 H 74.83152276849452 88.62326841637656 44.161475408248464 H 0.0 **** 0.06
1768 H 75.68359832332294 90.17946961673175 44.01320515607111 H 0.0 **** 0.06
1769 H 74.74317586697089 89.81430065346734 45.48058489370035 H 0.0 **** 0.06
1770 H 73.90551950395948 90.1273984681759 43.94144665919825 H 0.0 **** 0.06
1771 C 109.67940234151223 77.23847182873538 12.95853101338544 C 0.0 **** -0.24
1772 H 108.82622057233374 76.70333057507946 12.539772416199412 H 0.0 **** 0.06
1773 H 110.45995757799189 76.52488828993728 13.223761220180933 H 0.0 **** 0.06
1774 H 109.3654852211739 77.78275254987477 13.849173758385717 H 0.0 **** 0.06
1775 H 110.06441241939854 77.94139103274546 12.22026632175536 H 0.0 **** 0.06
1776 C 38.80059746494092 95.58814971023668 48.00324502477457 C 0.0 **** -0.24
1777 H 38.5706663554279 94.75868898172826 47.33479119175229 H 0.0 **** 0.06
1778 H 39.64213914720895 95.31781087896962 48.64184234347317 H 0.0 **** 0.06
1779 H 37.930846664975405 95.80803377842986 48.621729837415785 H 0.0 **** 0.06
1780 H 39.060057139015925 96.46829301384736 47.414161448793834 H 0.0 **** 0.06
1781 C 91.58914935729098 76.36382916029851 88.71367534836065 C 0.0 **** -0.24
1782 H 90.60394315493062 76.80239788675655 88.87226027030633 H 0.0 **** 0.06
1783 H 92.31186264107146 76.84464072553186 89.37511081848393 H 0.0 **** 0.06
1784 H 91.89056862003923 76.51333210223675 87.67713821187533 H 0.0 **** 0.06
1785 H 91.55082856139 75.29672592411444 88.93140255163237 H 0.0 **** 0.06
1786 C 23.27662125181419 23.056090145322813 28.52712968544276 C 0.0 **** -0.24
1787 H 24.110387290031042 23.293374804957892 29.189359449412706 H 0.0 **** 0.06
1788 H 22.73312424600539 22.197847894940594 28.92126946254777 H 0.0 **** 0.06
1789 H 23.65894849391097 22.81987615451726 27.534055267498417 H 0.0 **** 0.06
1790 H 22.607235760413204 23.91411302836525 28.46481784977462 H 0.0 **** 0.06
1791 C 1.9273952393989973 96.49017174480443 18.156653884351158 C 0.0 **** -0.24
1792 H 2.791537924311598 96.51699368487942 17.491765884572573 H 0.0 **** 0.06
1793 H 1.664198937180279 95.4533085851933 18.367223337326834 H 0.0 **** 0.06
1794 H 1.08613275265715 96.98971778972304 17.676900714730778 H 0.0 **** 0.06
1795 H 2.1706426812659405 97.00060811150769 19.088400818436398 H 0.0 **** 0.06
1796 C 27.661829778929608 105.79559697949307 64.89635504115103 C 0.0 **** -0.24
1797 H 27.285980974702547 106.36847339000335 64.04894414428091 H 0.0 **** 0.06
1798 H 28.476444410516756 105.15067061131214 64.56642177034237 H 0.0 **** 0.06
1799 H 26.856880951971377 105.1842476506913 65.30626288815105 H 0.0 **** 0.06
1800 H 28.026594557348474 106.47762533859708 65.66346054611543 H 0.0 **** 0.06
1801 C 13.825628529041438 50.75269527862753 15.480649591589327 C 0.0 **** -0.24
1802 H 13.911766974977695 49.797711214405524 14.962862437868893 H 0.0 **** 0.06
1803 H 13.064244979531622 51.362419239563906 14.992512476963213 H 0.0 **** 0.06
1804 H 14.783075228848332 51.27186728150929 15.446063824729606 H 0.0 **** 0.06
1805 H 13.543025856056317 50.57962851586922 16.519128574996046 H 0.0 **** 0.06
1806 C 0.8338617526788585 78.7317310106107 45.90822196062362 C 0.0 **** -0.24
1807 H -0.20941769445345315 78.58214396843317 46.18514368594708 H 0.0 **** 0.06
1808 H 0.9086711524058586 78.84723478122083 44.82601379459726 H 0.0 **** 0.06
1809 H 1.4214357447764332 77.86910913798837 46.22272519399206 H 0.0 **** 0.06
1810 H 1.213658062327747 79.62819467719868 46.3968297148208 H 0.0 **** 0.06
1811 C 68.5154973770855 92.26259153442652 13.311692857173227 C 0.0 **** -0.24
1812 H 67.66272157789624 91.60986996435213 13.121043856167233 H 0.0 **** 0.06
1813 H 68.27025900388051 92.95168665790172 14.120587835641203 H 0.0 **** 0.06
1814 H 68.74873103429061 92.82840540542804 12.409490710436955 H 0.0 **** 0.06
1815 H 69.37745024322558 91.65948665940135 13.596053016124273 H 0.0 **** 0.06
1816 C 79.13630503631981 15.398951404337922 2.063504756760567 C 0.0 **** -0.24
1817 H 78.57773510242953 15.674117943482518 2.957449328581447 H 0.0 **** 0.06
1818 H 78.47835326092422 15.447079535134513 1.195376797470642 H 0.0 **** 0.06
1819 H 79.52122169206996 14.385147406237792 2.1725761669808428 H 0.0 **** 0.06
1820 H 79.9679282931242 16.0906594347754 1.9278664689979372 H 0.0 **** 0.06
1821 C 112.33806809618022 98.52640977960564 80.51462789833417 C 0.0 **** -0.24
1822 H 113.05166245064169 99.17782682023002 80.00924986954482 H 0.0 **** 0.06
1823 H 112.33202935053372 98.75227919480304 81.58111068096085 H 0.0 **** 0.06
1824 H 112.62828890193 97.48608962840015 80.36437515012233 H 0.0 **** 0.06
1825 H 111.34309786804846 98.68937830877826 80.10231930369059 H 0.0 **** 0.06
1826 C 4.180093258923556 96.39626453715826 88.66510055513353 C 0.0 **** -0.24
1827 H 4.0056750233747245 95.32256446513423 88.7463070884009 H 0.0 **** 0.06
1828 H 3.2609785542274423 96.9319610219055 88.90061138119191 H 0.0 **** 0.06
1829 H 4.491785719402701 96.63656216112207 87.64855058738041 H 0.0 **** 0.06
1830 H 4.963281333765366 96.69053451163236 89.3643177117682 H 0.0 **** 0.06
1831 C 4.143911509459784 61.780046674340575 91.68575556342554 C 0.0 **** -0.24
1832 H 3.981079067265 60.983371565380004 90.9614060599018 H 0.0 **** 0.06
1833 H 3.7158204412062474 62.708979077085935 91.30600205590326 H 0.0 **** 0.06
1834 H 5.213452133008715 61.91252581346955 91.84618949239783 H 0.0 **** 0.06
1835 H 3.665153949680601 61.51822350502831 92.62872201304376 H 0.0 **** 0.06
1836 C 70.71566635889857 92.93434644975636 24.434912611064476 C 0.0 **** -0.24
1837 H 70.25430257049487 92.94790220350978 25.421887082261776 H 0.0 **** 0.06
1838 H 71.22763398622067 93.88105033323927 24.25990711933636 H 0.0 **** 0.06
1839 H 69.94560171679899 92.79131216585623 23.675895028364067 H 0.0 **** 0.06
1840 H 71.43457424799419 92.11642406284503 24.381504609150483 H 0.0 **** 0.06
1841 C 37.558808940857034 38.252239150470615 42.367438941493674 C 0.0 **** -0.24
1842 H 37.870004483668026 37.261442918336115 42.036062812293466 H 0.0 **** 0.06
1843 H 38.314946034043146 38.98442398072203 42.085380446031735 H 0.0 **** 0.06
1844 H 37.43844690540544 38.25215654659472 43.45139974224267 H 0.0 **** 0.06
1845 H 36.608683412827304 38.51000857459371 41.89735119432882 H 0.0 **** 0.06
1846 C 60.31083085329079 101.37064906488297 12.160789053787024 C 0.0 **** -0.24
1847 H 59.92522760727878 102.05446698522533 11.40398643183913 H 0.0 **** 0.06
1848 H 61.26108544392731 101.74793005129129 12.538384371505675 H 0.0 **** 0.06
1849 H 60.46034284774762 100.38589044280451 11.717632639432988 H 0.0 **** 0.06
1850 H 59.59630120037456 101.2959231857715 12.980109713800339 H 0.0 **** 0.06
1851 C 11.283245220472395 21.27205255908177 63.52816681679156 C 0.0 **** -0.24
1852 H 11.979584643017574 20.506928056865235 63.87298261372988 H 0.0 **** 0.06
1853 H 10.458425142264275 21.355971490732344 64.23459396697808 H 0.0 **** 0.06
1854 H 10.896855096644288 20.99544850354212 62.54740598431572 H 0.0 **** 0.06
1855 H 11.801309926106626 22.228981507780645 63.457839239021006 H 0.0 **** 0.06
1856 C 68.1762720826357 103.91280944607851 44.07036534123077 C 0.0 **** -0.24
1857 H 68.44057751887624 103.06403648617353 43.43983615955483 H 0.0 **** 0.06
1858 H 68.4617651702005 104.8389285770379 43.571483575136625 H 0.0 **** 0.06
1859 H 68.70167239059558 103.8359432354668 45.02291147488316 H 0.0 **** 0.06
1860 H 67.10079121689768 103.91166890092418 44.248448433140055 H 0.0 **** 0.06
1861 C 65.53167628420903 111.86277612664585 31.600504873812156 C 0.0 **** -0.24
1862 H 64.76621849918999 111.14059421383052 31.315391444253407 H 0.0 **** 0.06
1863 H 66.41281164592277 111.72358187242597 30.974749046646707 H 0.0 **** 0.06
1864 H 65.80017027276213 111.71321657421637 32.645791831744106 H 0.0 **** 0.06
1865 H 65.1446694765875 112.87315780134941 31.46480069851421 H 0.0 **** 0.06
1866 C 103.59187215726465 18.627600661832226 42.942809040553726 C 0.0 **** -0.24
1867 H 103.70725957528686 19.16437522535605 43.884802043190575 H 0.0 **** 0.06
1868 H 103.36230871387838 19.335453728218447 42.146993378687625 H 0.0 **** 0.06
1869 H 102.78092137024106 17.905822530905663 43.034286089313184 H 0.0 **** 0.06
1870 H 104.51910666168837 18.104316905298585 42.70867175800379 H 0.0 **** 0.06
1871 C 82.32849351505754 86.22451847110054 86.65755398081896 C 0.0 **** -0.24
1872 H 81.61993844334222 86.39240761518784 87.46843059962163 H 0.0 **** 0.06
1873 H 82.17890277753398 86.97646764244209 85.8827907796099 H 0.0 **** 0.06
1874 H 82.1705459083461 85.2312562816422 86.23747454199545 H 0.0 **** 0.06
1875 H 83.34566433158332 86.29755023600529 87.04368467447989 H 0.0 **** 0.06
1876 C 112.66435324515612 21.925230080101784 86.94366225935511 C 0.0 **** -0.24
1877 H 113.32120365095477 21.59328370274008 86.13987056361151 H 0.0 **** 0.06
1878 H 112.7852743639038 22.999079448429967 87.0918806039978 H 0.0 **** 0.06
1879 H 112.92107008332874 21.40001070092694 87.86298155351517 H 0.0 **** 0.06
1880 H 111.62878617586892 21.70938484417158 86.67885156646443 H 0.0 **** 0.06
1881 C 1.5053906553215484 59.674246710884155 9.548903376684478 C 0.0 **** -0.24
1882 H 0.7316106433548928 59.11035004331037 10.069655712045574 H 0.0 **** 0.06
1883 H 2.2805608329028697 58.99092641795492 9.202257258624854 H 0.0 **** 0.06
1884 H 1.9416615758343774 60.40556000626464 10.22857936981174 H 0.0 **** 0.06
1885 H 1.0655910135976647 60.190686893634 8.694748313676797 H 0.0 **** 0.06
1886 C 108.2912769992733 2.0787047317951988 2.638954421532702 C 0.0 **** -0.24
1887 H 108.20524580135833 3.1342120340656194 2.898725443658975 H 0.0 **** 0.06
1888 H 109.28385836826456 1.8846960517337674 2.2320135856565457 H 0.0 **** 0.06
1889 H 107.53607043828308 1.8258425311255007 1.8947321930718317 H 0.0 **** 0.06
1890 H 108.13923663859512 1.471862054696972 3.531485458801882 H 0.0 **** 0.06
1891 C 0.7275843955484156 31.843565032738255 72.72863787796697 C 0.0 **** -0.24
1892 H 0.5832622711388424 31.11041698419811 73.52181818022217 H 0.0 **** 0.06
1893 H -0.24360179581851504 32.15423885279347 72.34106436129764 H 0.0 **** 0.06
1894 H 1.3145000081304232 31.399345161416406 71.9253766050015 H 0.0 **** 0.06
1895 H 1.2542059245874615 32.710899121188106 73.12759821192506 H 0.0 **** 0.06
1896 C 41.61744868836894 4.604539620457018 19.535578949879636 C 0.0 **** -0.24
1897 H 41.86029708898411 3.5434375533808975 19.490049201063556 H 0.0 **** 0.06
1898 H 40.91935938451496 4.783022025167284 20.353705067463977 H 0.0 **** 0.06
1899 H 41.16005877637514 4.912460294894842 18.595408070401987 H 0.0 **** 0.06
1900 H 42.52770748585459 5.17949243354029 19.702597175681404 H 0.0 **** 0.06
1901 C 73.87354321261861 106.19450619270535 4.549945643487831 C 0.0 **** -0.24
1902 H 73.93900338110595 106.8138833966515 3.655599630229432 H 0.0 **** 0.06
1903 H 74.87601664575249 105.89998412142629 4.86168716420849 H 0.0 **** 0.06
1904 H 73.28343729187526 105.30415592690508 4.333159198741598 H 0.0 **** 0.06
1905 H 73.39589727336696 106.76131091799303 5.349838631037457 H 0.0 **** 0.06
1906 C 3.297192432668112 39.922486858692594 19.18671710364947 C 0.0 **** -0.24
1907 H 2.7858554533817426 39.092293401608515 19.67447248405938 H 0.0 **** 0.06
1908 H 4.119338847752829 40.26248890005223 19.816818583983036 H 0.0 **** 0.06
1909 H 2.593937665540693 40.74230872033718 19.033293065348232 H 0.0 **** 0.06
1910 H 3.688328887128364 39.594083922665334 18.22361857916985 H 0.0 **** 0.06
1911 C 70.99868604568732 43.26080442034305 70.7615039504145 C 0.0 **** -0.24
1912 H 70.61927963195063 42.67398279034836 69.92409771831854 H 0.0 **** 0.06
1913 H 70.99760457082425 44.317369145298755 70.4934968966102 H 0.0 **** 0.06
1914 H 72.0154138555308 42.94547035271313 70.9946903983735 H 0.0 **** 0.06
1915 H 70.36135660802589 43.10558124597367 71.63169351889027 H 0.0 **** 0.06
1916 C 1.389230622045556 11.72701330619384 27.63182881355283 C 0.0 **** -0.24
1917 H 2.1018322443203274 12.466105055278618 27.99752986877519 H 0.0 **** 0.06
1918 H 1.765763039421481 11.286277320722405 26.707529497449144 H 0.0 **** 0.06
1919 H 0.4301896925980966 12.20964907829216 27.44028705084935 H 0.0 **** 0.06
1920 H 1.258997348551059 10.945900290128066 28.380986159761875 H 0.0 **** 0.06
1921 C 47.7807093165972 40.84824206597148 45.01754845871572 C 0.0 **** -0.24
1922 H 48.179081635667764 39.91073856876828 44.62947673877295 H 0.0 **** 0.06
1923 H 46.99836906623715 41.21406363570034 44.35196351110475 H 0.0 **** 0.06
1924 H 48.581481820205234 41.58554158502809 45.07913427803065 H 0.0 **** 0.06
1925 H 47.363612666149734 40.68094247468297 46.011063556796465 H 0.0 **** 0.06
1926 C 55.0721569275678 46.26681046537752 98.12286094291363 C 0.0 **** -0.24
1927 H 54.8723468650991 47.301408976196115 98.40496895439625 H 0.0 **** 0.06
1928 H 54.1280248859916 45.74565700279331 97.96665697309072 H 0.0 **** 0.06
1929 H 55.6322376895364 45.776057702238944 98.91919395369084 H 0.0 **** 0.06
1930 H 55.65521519989418 46.247609174575615 97.20266570943704 H 0.0 **** 0.06
1931 C 99.30218933986185 42.35973414157888 101.49185335357089 C 0.0 **** -0.24
1932 H 99.54345298054434 42.967566500341775 102.36358416892813 H 0.0 **** 0.06
1933 H 100.05015707288243 42.52490429317265 100.71578563113783 H 0.0 **** 0.06
1934 H 98.31882255106783 42.63955137352718 101.11426624076023 H 0.0 **** 0.06
1935 H 99.29632475495302 41.306914399273865 101.7737773734572 H 0.0 **** 0.06
1936 C 85.282152278171 79.20250417799542 62.95365530851419 C 0.0 **** -0.24
1937 H 84.49622732759775 79.7163979505064 62.40063080742535 H 0.0 **** 0.06
1938 H 85.0386479727722 79.2046415961421 64.01678988806233 H 0.0 **** 0.06
1939 H 86.23138437033197 79.71450130246211 62.797231784658116 H 0.0 **** 0.06
1940 H 85.36081597323448 78.17396800946148 62.60114807181305 H 0.0 **** 0.06
1941 C 31.138594679012044 109.28625270551905 98.68743137708594 C 0.0 **** -0.24
1942 H 30.58788273304407 108.35311486035354 98.57129333064026 H 0.0 **** 0.06
1943 H 30.820669550614696 109.78496464407108 99.60328289765246 H 0.0 **** 0.06
1944 H 30.94010965255879 109.93346025374356 97.83258805637215 H 0.0 **** 0.06
1945 H 32.20682124634439 109.07385385020852 98.7406549396971 H 0.0 **** 0.06
1946 C 73.42365876175097 69.21969617649756 38.98032493558577 C 0.0 **** -0.24
1947 H 72.88084197662155 68.4890987970528 38.37988224753437 H 0.0 **** 0.06
1948 H 73.6517478113833 68.78975407085065 39.95628815753898 H 0.0 **** 0.06
1949 H 72.80858694357931 70.11026658933937 39.110155494894684 H 0.0 **** 0.06
1950 H 74.35038647587163 69.48842360010906 38.47482301466826 H 0.0 **** 0.06
1951 C 71.29940227149734 84.3504745483232 43.8293122947731 C 0.0 **** -0.24
1952 H 72.0400593898429 85.11649926245352 44.058953614294126 H 0.0 **** 0.06
1953 H 70.43923821780186 84.81132694110684 43.34270270442232 H 0.0 **** 0.06
1954 H 70.97968547457629 83.86519750729443 44.75050837852916 H 0.0 **** 0.06
1955 H 71.73926895591126 83.60904495492488 43.1621590632235 H 0.0 **** 0.06
1956 C 40.362941523446466 85.35118015925315 27.445494808984122 C 0.0 **** -0.24
1957 H 39.52235912079843 85.02345705021187 28.057613903960963 H 0.0 **** 0.06
1958 H 40.160049380661945 86.34706762672738 27.052734265581634 H 0.0 **** 0.06
1959 H 40.50154970430626 84.65469751066493 26.617667686631293 H 0.0 **** 0.06
1960 H 41.267285717880696 85.37677751115532 28.053393908280526 H 0.0 **** 0.06
1961 C 0.7889112341828195 26.908651716553635 23.886999508671607 C 0.0 **** -0.24
1962 H -0.17679452587239552 27.383843157106156 24.060733422169108 H 0.0 **** 0.06
1963 H 1.3544563393038374 26.883520289258087 24.81943353604484 H 0.0 **** 0.06
1964 H 1.3437100492890437 27.47713767210209 23.140644396263014 H 0.0 **** 0.06
1965 H 0.6333382265334677 25.89100041364719 23.527757424656187 H 0.0 **** 0.06
1966 C 106.62200481572341 32.49315444491094 73.48666659671238 C 0.0 **** -0.24
1967 H 105.64102176704324 32.69531821251388 73.05610177871546 H 0.0 **** 0.06
1968 H 106.6356957787167 31.486641137142158 73.90420396578659 H 0.0 **** 0.06
1969 H 106.82860360642769 33.21740670072455 74.27513005251751 H 0.0 **** 0.06
1970 H 107.38332590405895 32.57492337820571 72.71032964725816 H 0.0 **** 0.06
1971 C 115.23945846256584 22.257443134285456 49.464125119806326 C 0.0 **** -0.24
1972 H 114.21920901272026 22.210008013636365 49.08347445071544 H 0.0 **** 0.06
1973 H 115.2390228984171 22.73357199951274 50.444262883938364 H 0.0 **** 0.06
1974 H 115.85634085270637 22.83709788991205 48.777169905457946 H 0.0 **** 0.06
1975 H 115.64160311304151 21.247518481489752 49.549652262623226 H 0.0 **** 0.06
1976 C 92.7234624745526 25.89304242475913 105.75013453990567 C 0.0 **** -0.24
1977 H 92.85927932228995 24.81995423375639 105.61805334034452 H 0.0 **** 0.06
1978 H 91.84221013817037 26.07525393686001 106.36542330647788 H 0.0 **** 0.06
1979 H 92.58952460919176 26.364568247723213 104.77547760775266 H 0.0 **** 0.06
1980 H 93.60252488055298 26.31284824007679 106.23880959653911 H 0.0 **** 0.06
1981 C 11.163387783171828 44.296209574490035 1.8795516181521776 C 0.0 **** -0.24
1982 H 10.261632222989533 44.70635739220859 2.3334520503802594 H 0.0 **** 0.06
1983 H 11.897837406450776 45.09229090112228 1.748062554506106 H 0.0 **** 0.06
1984 H 10.918057059280045 43.86442368967238 0.9100586267729085 H 0.0 **** 0.06
1985 H 11.576942947748165 43.52324918019386 2.5280324377699372 H 0.0 **** 0.06
1986 C 16.065873021140362 2.324774038677276 79.7610047744057 C 0.0 **** -0.24
1987 H 15.576080649328048 2.9833353769056856 79.04407916364394 H 0.0 **** 0.06
1988 H 16.092487225488327 2.8070940712292156 80.73830823624789 H 0.0 **** 0.06
1989 H 17.084599302031364 2.121198444974297 79.42877022474906 H 0.0 **** 0.06
1990 H 15.512740725093437 1.388054027209705 79.83151196587207 H 0.0 **** 0.06
1991 C 77.68436560894062 99.36271062866234 91.70648988361421 C 0.0 **** -0.24
1992 H 78.2094652755502 99.98849084819204 92.42752481420632 H 0.0 **** 0.06
1993 H 77.5483126760316 98.36382083637028 92.12341537405104 H 0.0 **** 0.06
1994 H 78.2690247627483 99.29714290053147 90.7888862037484 H 0.0 **** 0.06
1995 H 76.7103397155295 99.80041997893767 91.48711333831099 H 0.0 **** 0.06
1996 C 61.68777328003389 3.78066969588545 65.88746709575346 C 0.0 **** -0.24
1997 H 60.90778979528185 3.836008524377249 65.12835556328167 H 0.0 **** 0.06
1998 H 62.06372274420584 4.782969260376376 66.094359787987 H 0.0 **** 0.06
1999 H 62.50320946729014 3.153873415864723 65.52582467328207 H 0.0 **** 0.06
2000 H 61.27633838490046 3.351146991992451 66.80020663536618 H 0.0 **** 0.06
2001 C 5.518996090472379 21.709893692017772 83.64678541209204 C 0.0 **** -0.24
2002 H 5.828421158073217 20.800785103252167 84.16158597220772 H 0.0 **** 0.06
2003 H 6.390201462537732 22.340774670237806 83.46827658563546 H 0.0 **** 0.06
2004 H 4.799172300914419 22.24972078822651 84.26282391674673 H 0.0 **** 0.06
2005 H 5.058136136249383 21.44922918658591 82.69410441932206 H 0.0 **** 0.06
2006 C 27.872762397167094 99.32819800360213 83.07361120500835 C 0.0 **** -0.24
2007 H 28.201081684472854 100.18751174541791 83.65949206607854 H 0.0 **** 0.06
2008 H 26.822837186857498 99.45109057541046 82.80534918808004 H 0.0 **** 0.06
2009 H 27.992930390828576 98.41990824476676 83.66358857561383 H 0.0 **** 0.06
2010 H 28.473582107795153 99.25591674458249 82.16740922970192 H 0.0 **** 0.06
2011 C 101.00612104332924 27.442785251105363 7.728215773668694 C 0.0 **** -0.24
2012 H 101.23531309961817 28.359134930592006 7.18501306322122 H 0.0 **** 0.06
2013 H 101.91664056377004 26.855661341264835 7.849943791261239 H 0.0 **** 0.06
2014 H 100.27082287048546 26.86383949195499 7.168766569370575 H 0.0 **** 0.06
2015 H 100.60085679719973 27.69385458132166 8.708464747664607 H 0.0 **** 0.06
2016 C 45.00172532123375 16.550626028488125 46.82452758475898 C 0.0 **** -0.24
2017 H 45.16551319998496 16.493337503888483 45.74896937937541 H 0.0 **** 0.06
2018 H 45.96217341799212 16.53667936943353 47.340271650181364 H 0.0 **** 0.06
2019 H 44.40402870963868 15.698125105733197 47.14644508201047 H 0.0 **** 0.06
2020 H 44.47436478087221 17.474827836324778 47.0627541509034 H 0.0 **** 0.06
2021 C 103.12965519293374 17.409529592326674 35.57118357678891 C 0.0 **** -0.24
2022 H 102.89286532035825 17.059808429229673 34.565582404853984 H 0.0 **** 0.06
2023 H 104.11322214598007 17.877783825380387 35.57023276305496 H 0.0 **** 0.06
2024 H 103.12966310311529 16.563664158180533 36.258740584988516 H 0.0 **** 0.06
2025 H 102.38032261355542 18.135630617736208 35.88794374976078 H 0.0 **** 0.06
2026 C 113.21476323604456 45.1270625846704 102.67804591409768 C 0.0 **** -0.24
2027 H 113.68485672360706 45.68558403919383 103.48758212301018 H 0.0 **** 0.06
2028 H 112.29822626110696 45.632467399270126 102.37237786060297 H 0.0 **** 0.06
2029 H 112.97808850616869 44.11984551085288 103.02172866563714 H 0.0 **** 0.06
2030 H 113.8992512929278 45.07067771200337 101.83150422879956 H 0.0 **** 0.06
2031 C 7.657234466422892 76.49964799207501 38.50407697496311 C 0.0 **** -0.24
2032 H 7.486798612238829 75.4639698631479 38.20918304598712 H 0.0 **** 0.06
2033 H 8.729272578900876 76.67620408739074 38.604258477954474 H 0.0 **** 0.06
2034 H 7.1662293773367765 76.69111023271563 39.458367913993555 H 0.0 **** 0.06
2035 H 7.248998963974628 77.16548825663918 37.74483367668972 H 0.0 **** 0.06
2036 C 2.828387524802224 97.42063283868836 112.77611370006775 C 0.0 **** -0.24
2037 H 3.8707151653866845 97.25897163969134 112.49944282842247 H 0.0 **** 0.06
2038 H 2.2606459893341366 96.50610903088347 112.60070048052225 H 0.0 **** 0.06
2039 H 2.4135078911651817 98.22739570391857 112.17146457655187 H 0.0 **** 0.06
2040 H 2.7690427526578674 97.68937772418096 113.83052079222952 H 0.0 **** 0.06
2041 C 58.62505048495089 37.243669036810786 98.31120781412295 C 0.0 **** -0.24
2042 H 59.280361240603895 38.08512398854242 98.08656290808977 H 0.0 **** 0.06
2043 H 57.59259868793683 37.590853567407635 98.3629399685378 H 0.0 **** 0.06
2044 H 58.910118620437146 36.806211887047596 99.268009970034 H 0.0 **** 0.06
2045 H 58.71709799468297 36.4927673097892 97.52635889244348 H 0.0 **** 0.06
2046 C 105.71665977626509 14.670074977631657 49.87312791631507 C 0.0 **** -0.24
2047 H 105.78941758885045 14.16119482497416 50.8340869334216 H 0.0 **** 0.06
2048 H 106.71836543988181 14.85835464904153 49.4840487231982 H 0.0 **** 0.06
2049 H 105.19280242998653 15.617250066875243 50.0021504058808 H 0.0 **** 0.06
2050 H 105.16590595506165 14.042938666099275 49.1709361096334 H 0.0 **** 0.06
2051 C 1.6902239778625159 49.40120488593567 65.87292796458544 C 0.0 **** -0.24
2052 H 2.4984050372668065 50.12139846985326 65.74774606672557 H 0.0 **** 0.06
2053 H 1.0411268263397062 49.42600403279582 64.9975235634725 H 0.0 **** 0.06
2054 H 1.1124950905970934 49.65447992597288 66.76165459969744 H 0.0 **** 0.06
2055 H 2.1095511003034915 48.401079888919256 65.98623183756774 H 0.0 **** 0.06
2056 C 116.21421652491149 101.81690820784732 84.87706674635353 C 0.0 **** -0.24
2057 H 117.26512578657602 101.84608014005002 84.59008824668928 H 0.0 **** 0.06
2058 H 115.85812776437555 100.78771413215239 84.84714607328883 H 0.0 **** 0.06
2059 H 115.63126741856524 102.42465928983285 84.18416343643659 H 0.0 **** 0.06
2060 H 116.10261536336633 102.21111925235789 85.88794799226915 H 0.0 **** 0.06
2061 C 79.09108207155955 81.48929565651255 113.43443680911903 C 0.0 **** -0.24
2062 H 78.45506395047781 80.96738385441486 114.14922976552234 H 0.0 **** 0.06
2063 H 78.47103674246861 82.08636526666811 112.76474306321549 H 0.0 **** 0.06
2064 H 79.65746358469482 80.7610671432829 112.85234636452131 H 0.0 **** 0.06
2065 H 79.78111719353248 82.14093471147737 113.9697469934446 H 0.0 **** 0.06
2066 C 51.545106365780725 94.24306356361163 95.25770891119237 C 0.0 **** -0.24
2067 H 51.377975877047874 93.19089724754565 95.48921795257286 H 0.0 **** 0.06
2068 H 51.691947620218684 94.79938297321928 96.1825463161764 H 0.0 **** 0.06
2069 H 50.680020965223775 94.63987501870713 94.72703212985903 H 0.0 **** 0.06
2070 H 52.431963851857006 94.33967585342197 94.63064999426342 H 0.0 **** 0.06
2071 C 51.72093712874622 74.34702059842743 9.7115550557198 C 0.0 **** -0.24
2072 H 52.17653407449162 73.59765806473757 10.358935305555292 H 0.0 **** 0.06
2073 H 52.44491313287817 75.13500319365937 9.5028730738523 H 0.0 **** 0.06
2074 H 50.84962711415751 74.77479978982501 10.208531764091418 H 0.0 **** 0.06
2075 H 51.41176821304316 73.88026790611002 8.776113184817518 H 0.0 **** 0.06
2076 C 114.98047821047473 41.10831664900218 3.8814848107926707 C 0.0 **** -0.24
2077 H 114.40595176314534 41.262947202280046 4.7949369086306035 H 0.0 **** 0.06
2078 H 114.74638517494554 41.89787278359398 3.1672512779683757 H 0.0 **** 0.06
2079 H 114.72376212748051 40.14045411507195 3.4508086728736203 H 0.0 **** 0.06
2080 H 116.04497871762045 41.13230281663151 4.114040788714277 H 0.0 **** 0.06
2081 C 40.78359327049934 96.01874442852562 67.06854901407846 C 0.0 **** -0.24
2082 H 39.780603812825575 96.37161622726725 66.82679985510927 H 0.0 **** 0.06
2083 H 40.73742348121962 94.97512218332577 67.3785810839014 H 0.0 **** 0.06
2084 H 41.194284812922376 96.62128419596746 67.87890527407797 H 0.0 **** 0.06
2085 H 41.421083090109754 96.10985614306753 66.18911718033246 H 0.0 **** 0.06
2086 C 59.84984164684673 79.57996110939504 10.103791280926998 C 0.0 **** -0.24
2087 H 59.206499479612916 78.8285363917727 10.560867507422813 H 0.0 **** 0.06
2088 H 59.30376891127901 80.51838977741107 10.00937122029677 H 0.0 **** 0.06
2089 H 60.16061477712361 79.23956361004326 9.115309286624324 H 0.0 **** 0.06
2090 H 60.730392367616275 79.73236524453375 10.728443514377432 H 0.0 **** 0.06
2091 C 4.585338922976469 68.5663792440786 31.47528639031364 C 0.0 **** -0.24
2092 H 4.715280976819724 69.36556494703962 32.205085160607055 H 0.0 **** 0.06
2093 H 4.18707817272203 68.98223751219419 30.5494255586799 H 0.0 **** 0.06
2094 H 3.8901000034975315 67.82472158871812 31.869956879195847 H 0.0 **** 0.06
2095 H 5.548009042955751 68.09398476044018 31.27873440835544 H 0.0 **** 0.06
2096 C 95.60760674789086 85.6491851164528 111.258243254136 C 0.0 **** -0.24
2097 H 95.05963150754451 85.03873896359426 111.97590374999317 H 0.0 **** 0.06
2098 H 96.4437878361988 85.07588340142203 110.8575060367994 H 0.0 **** 0.06
2099 H 95.98385816654098 86.5431690676674 111.75439087575307 H 0.0 **** 0.06
2100 H 94.94126484389466 85.93785070759785 110.4446803039931 H 0.0 **** 0.06
2101 C 50.12473117895013 21.65559105637817 113.34578914216509 C 0.0 **** -0.24
2102 H 49.228166966509946 22.272548686887205 113.40095095716643 H 0.0 **** 0.06
2103 H 50.71225922156901 21.946017573729478 112.47469373037072 H 0.0 **** 0.06
2104 H 49.83884611150805 20.606561612305313 113.25872585524688 H 0.0 **** 0.06
2105 H 50.71836358112003 21.79671072382206 114.24903649463707 H 0.0 **** 0.06
2106 C 88.71205186352046 49.239789382526 75.37679209134001 C 0.0 **** -0.24
2107 H 89.10751789818062 48.50245304134046 76.07435901774818 H 0.0 **** 0.06
2108 H 89.48594691423489 49.97068769378069 75.14166001699934 H 0.0 **** 0.06
2109 H 87.85967100236769 49.74736076557923 75.82925553793598 H 0.0 **** 0.06
2110 H 88.39298554850672 48.740809399333955 74.46200216979909 H 0.0 **** 0.06
2111 C 96.89265377343429 56.485890351595316 97.88217477616351 C 0.0 **** -0.24
2112 H 97.29803517487284 57.147928526239866 97.1169445193363 H 0.0 **** 0.06
2113 H 95.80346433602057 56.535584883985706 97.86409584373982 H 0.0 **** 0.06
2114 H 97.25520869235567 56.79768767569101 98.86136336282223 H 0.0 **** 0.06
2115 H 97.21318619517098 55.463585079972205 97.68384976496577 H 0.0 **** 0.06
2116 C 115.15039486679454 37.18049191506654 64.60277206282379 C 0.0 **** -0.24
2117 H 116.13178612728208 37.44898240347749 64.21147673977848 H 0.0 **** 0.06
2118 H 114.8322280081097 37.92976064122371 65.32843951874969 H 0.0 **** 0.06
2119 H 115.20675273105175 36.206398380542396 65.08748587257668 H 0.0 **** 0.06
2120 H 114.43205045263716 37.139053183898 63.78491448730671 H 0.0 **** 0.06
2121 C 103.5902784385876 87.96904135507233 19.88109281545482 C 0.0 **** -0.24
2122 H 103.68843914606745 86.88327859258948 19.910533242104634 H 0.0 **** 0.06
2123 H 102.91425003368755 88.29371890130702 20.672122559040247 H 0.0 **** 0.06
2124 H 103.19039844169927 88.27087978992694 18.913256315684066 H 0.0 **** 0.06
2125 H 104.56874497659382 88.42538275819629 20.02866545373658 H 0.0 **** 0.06
2126 C 106.88721590646841 1.0279532518062382 92.43055329298781 C 0.0 **** -0.24
2127 H 106.45134429632878 1.7181826466042907 91.70822214260122 H 0.0 **** 0.06
2128 H 107.58383016902695 1.5667263500184276 93.07353628947149 H 0.0 **** 0.06
2129 H 107.41845878754486 0.23595558355464163 91.90283589505259 H 0.0 **** 0.06
2130 H 106.09486821939808 0.5909507191187799 93.03931266113369 H 0.0 **** 0.06
2131 C 85.18782413738685 105.8411939590878 78.97980510778311 C 0.0 **** -0.24
2132 H 85.20733945696674 106.49954096207941 78.11108169768133 H 0.0 **** 0.06
2133 H 86.04806134481356 106.05277080706506 79.61490915534563 H 0.0 **** 0.06
2134 H 85.22543623377294 104.80306072661435 78.64974043882773 H 0.0 **** 0.06
2135 H 84.26935563112457 106.01026181921267 79.5432780156907 H 0.0 **** 0.06
2136 C 49.85683061269778 107.06004608090967 5.06837817823768 C 0.0 **** -0.24
2137 H 49.11172171991714 107.5518995047259 5.694450833006229 H 0.0 **** 0.06
2138 H 50.64329432033301 106.64338199274829 5.698371744151103 H 0.0 **** 0.06
2139 H 50.287669100414874 107.78548776481665 4.378472016623789 H 0.0 **** 0.06
2140 H 49.382159540676426 106.25807256090897 4.501975600047942 H 0.0 **** 0.06
2141 C 34.14991080965382 4.171215486633741 26.829111148305174 C 0.0 **** -0.24
2142 H 33.875621745454936 4.767217198983019 27.700199834896807 H 0.0 **** 0.06
2143 H 34.908536178312744 3.4418442204075745 27.11359680724479 H 0.0 **** 0.06
2144 H 34.54776190699397 4.824835295438959 26.052550370778988 H 0.0 **** 0.06
2145 H 33.26887070723703 3.6526018777815352 26.452098969353898 H 0.0 **** 0.06
2146 C 76.5554589241815 58.4736614949609 20.46886947356265 C 0.0 **** -0.24
2147 H 77.26702097300051 59.11338298755182 19.9464071756436 H 0.0 **** 0.06
2148 H 76.11969395553945 59.02101420959092 21.304368025773016 H 0.0 **** 0.06
2149 H 77.06999299323763 57.588771123695444 20.842652368224122 H 0.0 **** 0.06
2150 H 75.76618382693925 58.17085682175743 19.780825788185894 H 0.0 **** 0.06
2151 C 42.87381163271658 80.79008301477913 16.35851031462181 C 0.0 **** -0.24
2152 H 42.251223792477845 81.6095592242414 15.999006342658902 H 0.0 **** 0.06
2153 H 43.17117849110099 80.98536930407613 17.38917331689447 H 0.0 **** 0.06
2154 H 43.762362401503594 80.70838630827905 15.732538157919976 H 0.0 **** 0.06
2155 H 42.30918342026524 79.85895674040444 16.31172568447829 H 0.0 **** 0.06
2156 C 84.7636877119962 101.71120060771821 53.80271819435413 C 0.0 **** -0.24
2157 H 84.71968222806655 102.7781988896775 54.01918320573182 H 0.0 **** 0.06
2158 H 84.26556142182636 101.51207049645683 52.85369744552375 H 0.0 **** 0.06
2159 H 84.26456103386911 101.15917574417989 54.598280258309416 H 0.0 **** 0.06
2160 H 85.80494616422268 101.39535730055889 53.73971186785147 H 0.0 **** 0.06
2161 C 28.592717669963008 81.0242625772699 70.59907180644905 C 0.0 **** -0.24
2162 H 28.47997725657416 82.10572805690833 70.52346774230722 H 0.0 **** 0.06
2163 H 29.65272162891165 80.76848064248966 70.58926192797657 H 0.0 **** 0.06
2164 H 28.096177251829772 80.5480422050239 69.75449045955435 H 0.0 **** 0.06
2165 H 28.144004026307982 80.67619367792958 71.5292024669896 H 0.0 **** 0.06
2166 C 24.412356829364235 7.196330326909607 61.87797275727621 C 0.0 **** -0.24
2167 H 25.39824636102547 6.76006508897839 61.720297824255425 H 0.0 **** 0.06
2168 H 23.740655965436474 6.440176318610538 62.284257171820826 H 0.0 **** 0.06
2169 H 24.019040129447696 7.558621948162534 60.9274787831412 H 0.0 **** 0.06
2170 H 24.49030918460499 8.028263601783554 62.57869202009161 H 0.0 **** 0.06
2171 C 10.443420739458602 0.2779858388773988 10.603594128497434 C 0.0 **** -0.24
2172 H 9.758636834155482 0.27484260115110715 9.755759788190801 H 0.0 **** 0.06
2173 H 10.312829180122876 -0.6392961886081965 11.179172609377645 H 0.0 **** 0.06
2174 H 10.230835518020598 1.138629907134634 11.238585731158423 H 0.0 **** 0.06
2175 H 11.4701910580292 0.3375710407106709 10.241596441637455 H 0.0 **** 0.06
2176 C 106.60476563612829 20.555320763430206 11.024044744052162 C 0.0 **** -0.24
2177 H 106.00346280603324 21.40426968641843 11.350038032306315 H 0.0 **** 0.06
2178 H 106.0235969836541 19.940742965138373 10.33683366264097 H 0.0 **** 0.06
2179 H 106.8913146587002 19.960385534921407 11.891134523276605 H 0.0 **** 0.06
2180 H 107.5008428076213 20.917849496259954 10.519627627559146 H 0.0 **** 0.06
2181 C 97.08137061897236 75.17390375290506 116.19831263435091 C 0.0 **** -0.24
2182 H 97.07764489977995 76.0603506804427 116.83321496969003 H 0.0 **** 0.06
2183 H 97.81718150871774 74.46190886720618 116.57260343386602 H 0.0 **** 0.06
2184 H 97.33634327372312 75.4590556153743 115.17780917748678 H 0.0 **** 0.06
2185 H 96.09299865904808 74.71408132489356 116.21072996663176 H 0.0 **** 0.06
2186 C 114.1249087242999 65.4409656973898 33.34737869181518 C 0.0 **** -0.24
2187 H 115.13106471656349 65.52055517639201 32.93454015388048 H 0.0 **** 0.06
2188 H 114.11401983961619 64.6886514985548 34.13613451661453 H 0.0 **** 0.06
2189 H 113.43080070447195 65.15027355405704 32.55755895540821 H 0.0 **** 0.06
2190 H 113.82389392090047 66.40436593435027 33.75904973017967 H 0.0 **** 0.06
2191 C 77.61199262207683 58.00975086213924 35.54346550302324 C 0.0 **** -0.24
2192 H 78.52223534582049 58.410827278889656 35.989822857860645 H 0.0 **** 0.06
2193 H 76.91083381722478 58.8238480171658 35.355464939611636 H 0.0 **** 0.06
2194 H 77.15906885529697 57.29130511957351 36.22639867581643 H 0.0 **** 0.06
2195 H 77.85525113581753 57.514675021505354 34.60356596125797 H 0.0 **** 0.06
2196 C 74.43560652451825 73.36694184115484 67.73811319479674 C 0.0 **** -0.24
2197 H 73.52744397075384 73.81587582853632 68.14036810977544 H 0.0 **** 0.06
2198 H 75.27841129692254 73.60973412839581 68.38702776319224 H 0.0 **** 0.06
2199 H 74.62301018758154 73.75921430642418 66.73849719215443 H 0.0 **** 0.06
2200 H 74.31466726486107 72.28522588491364 67.6881612161418 H 0.0 **** 0.06
2201 C 96.0213998011485 80.52897164030773 69.60372619933014 C 0.0 **** -0.24
2202 H 96.5559690435444 79.67144483708566 69.19627139691715 H 0.0 **** 0.06
2203 H 96.58319643498368 80.9410978674546 70.44244458316052 H 0.0 **** 0.06
2204 H 95.03604045706692 80.21376473677088 69.9468552302026 H 0.0 **** 0.06
2205 H 95.91071324421114 81.28995900563811 68.83173226396809 H 0.0 **** 0.06
2206 C 81.30731244954464 12.11252549370792 79.7884536918296 C 0.0 **** -0.24
2207 H 80.67833318518555 12.17066741822481 80.67660770442552 H 0.0 **** 0.06
2208 H 82.06848641454448 11.344685789480394 79.93179744180651 H 0.0 **** 0.06
2209 H 81.78970379956579 13.075692849707934 79.62158487238702 H 0.0 **** 0.06
2210 H 80.69392519897539 11.859698101528778 78.92421281313506 H 0.0 **** 0.06
2211 C 13.34597281339298 27.796353304529504 78.30400076202196 C 0.0 **** -0.24
2212 H 13.154470334462207 27.508825290463164 79.33734114687874 H 0.0 **** 0.06
2213 H 12.41390899387487 28.121889085890388 77.83946379203226 H 0.0 **** 0.06
2214 H 13.745283961652849 26.941353333135822 77.75679447008628 H 0.0 **** 0.06
2215 H 14.06862430303929 28.612270797796782 78.28127511804843 H 0.0 **** 0.06
2216 C 52.03384723923796 62.09331413944551 99.00737224769739 C 0.0 **** -0.24
2217 H 52.24293359424178 62.244099259242745 100.06610104487484 H 0.0 **** 0.06
2218 H 52.97057092856954 62.09627666236449 98.44878653500285 H 0.0 **** 0.06
2219 H 51.39140109500181 62.895972164977024 98.64623242518465 H 0.0 **** 0.06
2220 H 51.531682468248505 61.13610290964692 98.86932467088286 H 0.0 **** 0.06
2221 C 25.21989035472253 30.444808064287116 3.1352647041746877 C 0.0 **** -0.24
2222 H 24.430870446388198 29.950730821815043 2.5690711172005365 H 0.0 **** 0.06
2223 H 24.828815364404086 31.360137253439177 3.5801453922038178 H 0.0 **** 0.06
2224 H 26.047714128927858 30.688879167888672 2.4695800532216765 H 0.0 **** 0.06
2225 H 25.57187212395693 29.779535743450097 3.92364566152672 H 0.0 **** 0.06
2226 C 8.105430218609314 73.61544968215912 72.93369782879304 C 0.0 **** -0.24
2227 H 8.77579534954489 73.48400011644912 73.78271286570961 H 0.0 **** 0.06
2228 H 7.2039192634588005 74.13497655242054 73.26001493339345 H 0.0 **** 0.06
2229 H 7.836804263872985 72.64041117721376 72.52791593944968 H 0.0 **** 0.06
2230 H 8.605763868160132 74.20359502588155 72.16467882242586 H 0.0 **** 0.06
2231 C 105.916075279268 75.90588342906707 108.91220359687686 C 0.0 **** -0.24
2232 H 105.65167773144364 75.95471784274761 107.85555363472773 H 0.0 **** 0.06
2233 H 105.46802184795004 76.74942242997517 109.43745881840275 H 0.0 **** 0.06
2234 H 107.00020543902681 75.94617819098562 109.01731824298624 H 0.0 **** 0.06
2235 H 105.54430094238901 74.97402974505809 109.33640334586487 H 0.0 **** 0.06
2236 C 92.2859617066735 36.85796419058963 32.15347508196459 C 0.0 **** -0.24
2237 H 92.2531297209679 36.60892544752622 33.21412946935294 H 0.0 **** 0.06
2238 H 93.31581989853527 36.80695949026446 31.799934990694055 H 0.0 **** 0.06
2239 H 91.90043808133044 37.8670166868568 32.00563871175632 H 0.0 **** 0.06
2240 H 91.67358196450877 36.14939275223159 31.595216566470242 H 0.0 **** 0.06
2241 C 97.26037293353642 13.077280630096226 23.922967849321395 C 0.0 **** -0.24
2242 H 98.26004911567196 12.863668652207679 24.300403116077582 H 0.0 **** 0.06
2243 H 97.22114460725444 12.861204404105962 22.85547398563361 H 0.0 **** 0.06
2244 H 97.02668841275039 14.129620713998577 24.089937794472668 H 0.0 **** 0.06
2245 H 96.53314597091546 12.457002513539749 24.446444630966482 H 0.0 **** 0.06
2246 C 47.976406854888644 24.639139234740696 70.98896599235738 C 0.0 **** -0.24
2247 H 48.41553272216424 25.603296796884138 71.2461150925121 H 0.0 **** 0.06
2248 H 46.89397435075048 24.689556130268045 71.11223825651342 H 0.0 **** 0.06
2249 H 48.38167398686808 23.868661248492913 71.64350406227328 H 0.0 **** 0.06
2250 H 48.21394165341189 24.39740475444262 69.9522270099113 H 0.0 **** 0.06
2251 C 108.39067217485461 52.98135203088799 92.93667079327241 C 0.0 **** -0.24
2252 H 107.34685520846705 52.67008922073296 92.95803662755105 H 0.0 **** 0.06
2253 H 109.01287716431943 52.19398377805686 93.36266513277982 H 0.0 **** 0.06
2254 H 108.5098281896465 53.894676073454264 93.51876266721729 H 0.0 **** 0.06
2255 H 108.69360645078507 53.16485906468694 91.90562764140472 H 0.0 **** 0.06
2256 C 113.85436140574112 8.180156747137005 71.01556207132208 C 0.0 **** -0.24
2257 H 113.32010005395759 7.385783109321281 70.49286676036809 H 0.0 **** 0.06
2258 H 113.34401043282514 9.12903930935201 70.8513831604925 H 0.0 **** 0.06
2259 H 114.87322721945115 8.244021853910837 70.63432771762487 H 0.0 **** 0.06
2260 H 113.87842738101583 7.959631681080424 72.08242590944425 H 0.0 **** 0.06
2261 C 24.201756286485107 94.93039936064 105.51114691186785 C 0.0 **** -0.24
2262 H 23.800717401057568 94.3716725923976 104.66590721951678 H 0.0 **** 0.06
2263 H 25.147637824716327 94.48799949975319 105.82327417493823 H 0.0 **** 0.06
2264 H 23.493097385254487 94.89515976723084 106.33870156788186 H 0.0 **** 0.06
2265 H 24.36467836417623 95.96720439405058 105.21679391384629 H 0.0 **** 0.06
2266 C 70.88390940221535 33.58860693911468 74.97340508756346 C 0.0 **** -0.24
2267 H 71.37361256696323 33.68578121975157 75.94199111613943 H 0.0 **** 0.06
2268 H 70.25350462105368 32.69950870299899 74.97310129021338 H 0.0 **** 0.06
2269 H 71.63909061128112 33.49894903314631 74.19273502402834 H 0.0 **** 0.06
2270 H 70.27001711776464 34.46960159718458 74.78523585675146 H 0.0 **** 0.06
2271 C 86.91808651720385 21.690848617891476 66.17734416333363 C 0.0 **** -0.24
2272 H 87.55228458307386 20.85025180594141 66.45962204205179 H 0.0 **** 0.06
2273 H 85.87037749420296 21.40102190086006 66.27015240899871 H 0.0 **** 0.06
2274 H 87.12727005449926 21.973368121113026 65.14591801309794 H 0.0 **** 0.06
2275 H 87.12141328014746 22.536060509592005 66.83455115079971 H 0.0 **** 0.06
2276 C 78.18545211006321 76.02602741664384 96.43280234384929 C 0.0 **** -0.24
2277 H 78.6628602238377 76.5513072909751 95.60548709404014 H 0.0 **** 0.06
2278 H 77.50596384942662 76.70409238476753 96.9500243655612 H 0.0 **** 0.06
2279 H 78.94814958247633 75.67460423015089 97.12827291854472 H 0.0 **** 0.06
2280 H 77.62573361945087 75.17396201358184 96.04783911145438 H 0.0 **** 0.06
2281 C 104.92531793047135 63.15128372464818 31.44021369209922 C 0.0 **** -0.24
2282 H 104.2108389013446 62.34177269918649 31.294400384161534 H 0.0 **** 0.06
2283 H 105.47405071845347 63.32228199246538 30.514309885771326 H 0.0 **** 0.06
2284 H 105.62454615475039 62.88061508621723 32.23175546589433 H 0.0 **** 0.06
2285 H 104.39332931833081 64.05994723865118 31.72109742185763 H 0.0 **** 0.06
2286 C 63.95981267272176 29.566360685467544 98.64597200379905 C 0.0 **** -0.24
2287 H 64.09892875242991 30.59200696104827 98.98747659960603 H 0.0 **** 0.06
2288 H 64.43351678231826 28.88193837965636 99.35101781407107 H 0.0 **** 0.06
2289 H 64.41339699357988 29.446074730709654 97.66246832688432 H 0.0 **** 0.06
2290 H 62.89444637612562 29.34532388627551 98.58514173635925 H 0.0 **** 0.06
2291 C 28.711369133354708 97.37496468819319 69.10508425229858 C 0.0 **** -0.24
2292 H 29.59522295944322 96.9576663879485 69.58905387192391 H 0.0 **** 0.06
2293 H 28.959048299015308 98.34602300349755 68.67474505462661 H 0.0 **** 0.06
2294 H 27.917775420165583 97.49574568002078 69.84212557205407 H 0.0 **** 0.06
2295 H 28.376279178621814 96.70150292439976 68.3165844684101 H 0.0 **** 0.06
2296 C 49.45833310488267 34.15877977633896 72.35651147053511 C 0.0 **** -0.24
2297 H 48.720609691948695 34.85740899668728 72.75241600357754 H 0.0 **** 0.06
2298 H 49.38017976282203 34.124270499265755 71.2703774707993 H 0.0 **** 0.06
2299 H 49.2728304088694 33.16541435125391 72.76602812832323 H 0.0 **** 0.06
2300 H 50.45833008119298 34.48818132874089 72.63924040294387 H 0.0 **** 0.06
2301 C 49.43283683249106 53.684544584799255 57.7047320097345 C 0.0 **** -0.24
2302 H 50.254141760502876 52.97134438252385 57.77807149024713 H 0.0 **** 0.06
2303 H 48.51226009462104 53.214061939913506 58.05214328982521 H 0.0 **** 0.06
2304 H 49.31336277892953 53.996454525174386 56.66699402461265 H 0.0 **** 0.06
2305 H 49.651435414884986 54.55539929294122 58.32375282954217 H 0.0 **** 0.06
2306 C 2.1203431310858036 84.52005339794493 41.892060428792576 C 0.0 **** -0.24
2307 H 2.240344235352893 85.19368531147887 41.043877833003734 H 0.0 **** 0.06
2308 H 3.0806929265480107 84.38569764055302 42.388880024790325 H 0.0 **** 0.06
2309 H 1.7542687660827596 83.55601492817499 41.5398526571789 H 0.0 **** 0.06
2310 H 1.4031955527521518 84.94622617644879 42.594754652431675 H 0.0 **** 0.06
2311 C 1.5898711914067913 24.28633939604896 11.757569722695791 C 0.0 **** -0.24
2312 H 1.8497689649991713 24.663629942915918 12.74691899918679 H 0.0 **** 0.06
2313 H 0.7170700755394872 23.637225720038487 11.834281299416858 H 0.0 **** 0.06
2314 H 2.4292587452163357 23.722172533013293 11.35215364125321 H 0.0 **** 0.06
2315 H 1.3622278535865764 25.12468891359731 11.098370491910558 H 0.0 **** 0.06
2316 C 114.00701667937048 75.97475946793219 95.6685322397013 C 0.0 **** -0.24
2317 H 114.58950252441971 75.29069272565499 96.28469522751323 H 0.0 **** 0.06
2318 H 113.99934623435371 75.61856417682901 94.63852979851586 H 0.0 **** 0.06
2319 H 114.45342011342187 76.96858054066757 95.70642196831704 H 0.0 **** 0.06
2320 H 112.98456520874821 76.02059412570514 96.04481829776174 H 0.0 **** 0.06
2321 C 25.90204012699266 40.15976989024978 30.415125147416205 C 0.0 **** -0.24
2322 H 26.172969312187945 40.8876069828147 31.178915967638588 H 0.0 **** 0.06
2323 H 25.023916268618024 40.51206338981103 29.872518629118332 H 0.0 **** 0.06
2324 H 25.677671936794496 39.2034241024715 30.888052883464056 H 0.0 **** 0.06
2325 H 26.73308784881442 40.035308968452284 29.72048627700211 H 0.0 **** 0.06
2326 C 58.64018474595517 42.38301379646607 73.44692529120042 C 0.0 **** -0.24
2327 H 59.0623323841275 43.38520907983231 73.37193890519194 H 0.0 **** 0.06
2328 H 58.74957353134519 42.01802810844405 74.46784765324475 H 0.0 **** 0.06
2329 H 59.16601553915561 41.71599289638558 72.76349418002556 H 0.0 **** 0.06
2330 H 57.582919917274694 42.4135324955791 73.1823016058832 H 0.0 **** 0.06
2331 C 94.96125969281763 109.15548109730702 74.61469284980248 C 0.0 **** -0.24
2332 H 95.98745764350758 109.4454145567795 74.38871867765712 H 0.0 **** 0.06
2333 H 94.83886576818796 108.08675189875186 74.43669106368219 H 0.0 **** 0.06
2334 H 94.27627491035275 109.71155734384178 73.97530644782191 H 0.0 **** 0.06
2335 H 94.74393046953304 109.37742738579766 75.65953246602172 H 0.0 **** 0.06
2336 C 76.40566710461846 72.6599525833017 35.90086079725094 C 0.0 **** -0.24
2337 H 75.44420582282638 72.49400935331704 36.38665293780153 H 0.0 **** 0.06
2338 H 76.89241763579685 71.7015587930531 35.72225736935985 H 0.0 **** 0.06
2339 H 77.03678232492516 73.27416038657395 36.54458156333675 H 0.0 **** 0.06
2340 H 76.2496603541594 73.17151406364496 34.9512894788904 H 0.0 **** 0.06
2341 C 5.5955498606155345 27.317760342960646 0.7236945367774155 C 0.0 **** -0.24
2342 H 4.647717621662224 27.258318163471472 0.18773679465466842 H 0.0 **** 0.06
2343 H 5.994024269991343 26.312753460890242 0.8681534217053297 H 0.0 **** 0.06
2344 H 5.435309245492903 27.788725757706963 1.6936329359263311 H 0.0 **** 0.06
2345 H 6.303752864138801 27.90995238137073 0.1440782272566139 H 0.0 **** 0.06
2346 C 96.84421655753195 81.27834681049995 65.17582156069213 C 0.0 **** -0.24
2347 H 97.51050073220668 80.50146161867775 65.55137819727358 H 0.0 **** 0.06
2348 H 95.81764494465148 81.04419628387475 65.45899688445624 H 0.0 **** 0.06
2349 H 96.92097134977931 81.32843783062535 64.09009852779448 H 0.0 **** 0.06
2350 H 97.1296403665103 82.2390676281515 65.60533730359444 H 0.0 **** 0.06
2351 C 75.16205558599526 71.39504801375264 98.77441794647467 C 0.0 **** -0.24
2352 H 75.2697610384183 71.91296138983043 97.8210873276183 H 0.0 **** 0.06
2353 H 76.14441391819429 71.0809004976127 99.12838752606564 H 0.0 **** 0.06
2354 H 74.52577133306627 70.52074783204813 98.64284128396176 H 0.0 **** 0.06
2355 H 74.71038222456926 72.06803077544828 99.50346620351476 H 0.0 **** 0.06
2356 C 88.76205717891048 60.3972411177769 2.765968698907784 C 0.0 **** -0.24
2357 H 88.99156275172913 61.18372912831242 3.4854781252811904 H 0.0 **** 0.06
2358 H 88.15643746675744 59.63013085278595 3.249399789582128 H 0.0 **** 0.06
2359 H 89.68946662787175 59.95379379358829 2.4042282945129045 H 0.0 **** 0.06
2360 H 88.21051219354428 60.82219718950512 1.9274429565426203 H 0.0 **** 0.06
2361 C 42.05209960243177 66.37727151844314 63.05097615763219 C 0.0 **** -0.24
2362 H 42.225023027123726 65.31089252381909 62.90457835263351 H 0.0 **** 0.06
2363 H 41.625591827513546 66.54344952305613 64.04045176726507 H 0.0 **** 0.06
2364 H 41.36053331608085 66.74084030632244 62.29087499397241 H 0.0 **** 0.06
2365 H 42.99754800896018 66.91319906984086 62.966810014030756 H 0.0 **** 0.06
2366 C 58.8716286436015 70.65948216990495 78.13258207999135 C 0.0 **** -0.24
2367 H 58.95985184815632 71.29839215934001 79.01096560932646 H 0.0 **** 0.06
2368 H 59.70885813359695 69.96038401005589 78.1068208686327 H 0.0 **** 0.06
2369 H 58.88446190519875 71.273716294222 77.23302795229964 H 0.0 **** 0.06
2370 H 57.93506520111663 70.10328143100708 78.18069302954393 H 0.0 **** 0.06
2371 C 83.21787663324352 22.86237053056516 26.14891935235113 C 0.0 **** -0.24
2372 H 83.02836630737596 23.926617796682336 26.003872312719466 H 0.0 **** 0.06
2373 H 83.86273042977388 22.72351287849868 27.017331792333096 H 0.0 **** 0.06
2374 H 83.70742180891546 22.45718977601061 25.263831226565344 H 0.0 **** 0.06
2375 H 82.27222141761058 22.34423256818374 26.31099428071144 H 0.0 **** 0.06
2376 C 113.41696008889801 40.736492733936814 13.309124611650144 C 0.0 **** -0.24
2377 H 113.15369369685908 41.790023151350795 13.405734439108318 H 0.0 **** 0.06
2378 H 112.52178686140189 40.1590166000143 13.076194946381658 H 0.0 **** 0.06
2379 H 113.84459773127037 40.382712558327114 14.24710253464955 H 0.0 **** 0.06
2380 H 114.146248979826 40.616593312110126 12.508501880814311 H 0.0 **** 0.06
2381 C 43.81895581979486 34.1714043434569 24.04524229665408 C 0.0 **** -0.24
2382 H 42.949842583202226 34.010709495989126 24.68214828609328 H 0.0 **** 0.06
2383 H 43.71741176194954 33.58041005290792 23.135371712311272 H 0.0 **** 0.06
2384 H 44.72105344538453 33.86634411697821 24.577321430475905 H 0.0 **** 0.06
2385 H 43.8897508346847 35.22769956543056 23.78702069163267 H 0.0 **** 0.06
2386 C 108.70994044966945 51.43177535285729 81.30500773233987 C 0.0 **** -0.24
2387 H 109.66037778726967 51.45130376757515 81.83841234533486 H 0.0 **** 0.06
2388 H 108.34617627129339 50.40567512961313 81.24731072400988 H 0.0 **** 0.06
2389 H 108.85058202442666 51.825742857979996 80.29850064621962 H 0.0 **** 0.06
2390 H 107.98316559281707 52.04541634845051 81.83660340352694 H 0.0 **** 0.06
2391 C 34.76768607317217 22.20569358248258 101.62291324099701 C 0.0 **** -0.24
2392 H 34.406518532580435 23.210000504169443 101.39809182746549 H 0.0 **** 0.06
2393 H 35.853438936010775 22.1819648223331 101.53293214196933 H 0.0 **** 0.06
2394 H 34.32870084295388 21.496508187564245 100.92022832944417 H 0.0 **** 0.06
2395 H 34.47985414117096 21.93630957367617 102.63899197034513 H 0.0 **** 0.06
2396 C 75.187300987057 71.23307865528957 90.30124946533115 C 0.0 **** -0.24
2397 H 74.98153349331025 70.33493978912767 89.71748120805597 H 0.0 **** 0.06
2398 H 74.71280397905761 71.14601263030318 91.27884349164384 H 0.0 **** 0.06
2399 H 74.78962300226445 72.10392715809351 89.78028299722155 H 0.0 **** 0.06
2400 H 76.26353803846408 71.34510023539102 90.42758973706071 H 0.0 **** 0.06
2401 C 87.15174891474572 89.49548667114055 1.9383068844049092 C 0.0 **** -0.24
2402 H 87.05510801654748 90.57672319389235 2.0413948968073328 H 0.0 **** 0.06
2403 H 88.03657110357182 89.15733889294404 2.4779213384475156 H 0.0 **** 0.06
2404 H 87.24835265930372 89.23867948047143 0.883346337424399 H 0.0 **** 0.06
2405 H 86.26685483200382 89.01092584058989 2.3507304762192405 H 0.0 **** 0.06
2406 C 51.31609485161942 90.43735417131268 104.19774873145249 C 0.0 **** -0.24
2407 H 51.93845404287987 91.33021749608713 104.1477584960715 H 0.0 **** 0.06
2408 H 51.73125531414057 89.74494157900756 104.93031448112421 H 0.0 **** 0.06
2409 H 51.29052727419135 89.95812616908714 103.21848939223148 H 0.0 **** 0.06
2410 H 50.304560622681116 90.71598642666447 104.49202325717769 H 0.0 **** 0.06
2411 C 30.45859373895931 70.53664119412102 0.015849195021829132 C 0.0 **** -0.24
2412 H 30.445028916455584 70.84337151176143 1.061688317394129 H 0.0 **** 0.06
2413 H 31.01875237463031 69.60632282714599 -0.08238548156187164 H 0.0 **** 0.06
2414 H 30.933723358927665 71.31335576386476 -0.5835907950658594 H 0.0 **** 0.06
2415 H 29.436124428773553 70.38370349280464 -0.33112861377463787 H 0.0 **** 0.06
2416 C 1.7702811437179093 5.361619649840122 85.48403130521106 C 0.0 **** -0.24
2417 H 1.9462213054586641 6.193128894429805 86.1668024427546 H 0.0 **** 0.06
2418 H 1.0243974822090536 4.691488102814475 85.91245082897751 H 0.0 **** 0.06
2419 H 2.701479813091055 4.816796810532679 85.32737850296687 H 0.0 **** 0.06
2420 H 1.4092230865093143 5.745701220806296 84.53023920924247 H 0.0 **** 0.06
2421 C 81.54925523264214 42.765157155829826 55.04075498465039 C 0.0 **** -0.24
2422 H 81.80073874605006 42.703515829958036 56.100027571251985 H 0.0 **** 0.06
2423 H 80.46917403180106 42.682787953658334 54.91827684617061 H 0.0 **** 0.06
2424 H 82.03849732693322 41.951986670102144 54.50402233848163 H 0.0 **** 0.06
2425 H 81.88959961140804 43.72053219456845 54.64156556301708 H 0.0 **** 0.06
2426 C 70.0947251166593 57.29662807329881 76.50255117212149 C 0.0 **** -0.24
2427 H 69.14765093069664 56.76629306856592 76.40801452019915 H 0.0 **** 0.06
2428 H 70.0556817612858 58.21568250393117 75.9164943276707 H 0.0 **** 0.06
2429 H 70.90340696332592 56.6657709598691 76.13389967818335 H 0.0 **** 0.06
2430 H 70.27218885491672 57.54082281384384 77.54961252581009 H 0.0 **** 0.06
2431 C 1.1927745671480352 17.954472321973125 66.30315014700591 C 0.0 **** -0.24
2432 H 1.4791914427122492 17.095560208841057 65.69743467204 H 0.0 **** 0.06
2433 H 1.4836008265005205 17.78279089027882 67.33924691186104 H 0.0 **** 0.06
2434 H 0.11204683692869821 18.093920928429228 66.24715222849795 H 0.0 **** 0.06
2435 H 1.693179124954895 18.846682847827964 65.92692865021087 H 0.0 **** 0.06
2436 C 24.114035532094015 97.24557105213006 34.77817215887768 C 0.0 **** -0.24
2437 H 23.665811865624683 97.5549081123898 33.834769802436824 H 0.0 **** 0.06
2438 H 24.500923887810664 98.12053740293524 35.30086640131941 H 0.0 **** 0.06
2439 H 24.930213595075088 96.54906440843556 34.58237911207266 H 0.0 **** 0.06
2440 H 23.359706190141967 96.75690446725079 35.395663240632985 H 0.0 **** 0.06
2441 C 57.433577241821496 30.42675972060627 109.44505574307641 C 0.0 **** -0.24
2442 H 56.41779670065037 30.032320267881573 109.41945550043067 H 0.0 **** 0.06
2443 H 57.87175655123542 30.236402707497945 110.42568062945031 H 0.0 **** 0.06
2444 H 57.41102624400983 31.5001656209065 109.25967469947466 H 0.0 **** 0.06
2445 H 58.03339795265575 29.93745822586513 108.6781345705993 H 0.0 **** 0.06
2446 C 45.1817002283523 19.157277833959597 12.099464912303432 C 0.0 **** -0.24
2447 H 46.03931329029031 18.585555085223348 11.74448897556347 H 0.0 **** 0.06
2448 H 45.420144033287116 19.608457756012456 13.062881345316427 H 0.0 **** 0.06
2449 H 44.323543975405244 18.493792678290845 12.210826098451648 H 0.0 **** 0.06
2450 H 44.944575870887604 19.94013600949296 11.379492660209394 H 0.0 **** 0.06
2451 C 30.691734182425478 68.36087558088565 2.5649009995210577 C 0.0 **** -0.24
2452 H 31.524819890181732 68.1683006816512 1.8887729890950595 H 0.0 **** 0.06
2453 H 30.01606593582568 69.0869693058633 2.111617035082432 H 0.0 **** 0.06
2454 H 31.072362011417738 68.75690523749444 3.507011396997825 H 0.0 **** 0.06
2455 H 30.154337517556257 67.43177497073083 2.752818006671447 H 0.0 **** 0.06
2456 C 50.89525102815233 111.58460788478723 107.04642954305942 C 0.0 **** -0.24
2457 H 51.14077260310546 111.45220184788903 108.09966584408974 H 0.0 **** 0.06
2458 H 50.659996809495524 110.61685621497617 106.6041003771912 H 0.0 **** 0.06
2459 H 51.74709231811187 112.02442275655345 106.52779358426713 H 0.0 **** 0.06
2460 H 50.03316855688479 112.24647903632744 106.95579049827117 H 0.0 **** 0.06
2461 C 8.531751643072951 61.58674309005317 82.5389435492475 C 0.0 **** -0.24
2462 H 7.89607049985257 62.39683816654827 82.89758747687716 H 0.0 **** 0.06
2463 H 9.537814432493604 61.96736649584421 82.35866172733259 H 0.0 **** 0.06
2464 H 8.12159999305419 61.188560163579005 81.60990907763096 H 0.0 **** 0.06
2465 H 8.56996171106087 60.79591023133076 83.2877007270975 H 0.0 **** 0.06
2466 C 103.31867602747124 41.28883533421224 2.1451508339638394 C 0.0 **** -0.24
2467 H 103.02013566166445 41.58222294698387 1.138423781217142 H 0.0 **** 0.06
2468 H 103.77052113649654 42.140947513657316 2.652929128207461 H 0.0 **** 0.06
2469 H 104.04056641053427 40.47484551642722 2.0873775256418696 H 0.0 **** 0.06
2470 H 102.44099362981174 40.95812069600484 2.7007859850681513 H 0.0 **** 0.06
2471 C 70.3649080180032 68.46469853817109 111.7290114172381 C 0.0 **** -0.24
2472 H 71.41279617243097 68.3563437535935 111.4478572502756 H 0.0 **** 0.06
2473 H 70.29239131605544 69.07423048653828 112.62995432297365 H 0.0 **** 0.06
2474 H 69.93664157992859 67.48078963815655 111.91849771921574 H 0.0 **** 0.06
2475 H 69.81993426570307 68.948463271029 110.91819005692358 H 0.0 **** 0.06
2476 C 90.34495044063962 83.65655349311592 18.830093019061877 C 0.0 **** -0.24
2477 H 90.03489941539766 84.2534141009026 19.687649852780424 H 0.0 **** 0.06
2478 H 91.14524408527927 84.171943178254 18.29928749395998 H 0.0 **** 0.06
2479 H 89.49636074620327 83.51463165577152 18.1612248254047 H 0.0 **** 0.06
2480 H 90.70220807513482 82.68576300474842 19.174107253636777 H 0.0 **** 0.06
2481 C 47.06386196591157 105.53221824232563 49.83743553789458 C 0.0 **** -0.24
2482 H 47.45566436695037 104.51528324340165 49.84914170692889 H 0.0 **** 0.06
2483 H 46.352306352258324 105.65680715228063 50.65478569634871 H 0.0 **** 0.06
2484 H 46.562432227744324 105.71835506375422 48.88762751879892 H 0.0 **** 0.06
2485 H 47.885170390179084 106.23834759209967 49.95917613172378 H 0.0 **** 0.06
2486 C 94.51220227094186 73.78076764251918 104.50297032675184 C 0.0 **** -0.24
2487 H 94.64553838890421 73.20197664873311 103.58841442711369 H 0.0 **** 0.06
2488 H 95.08732129550734 73.3230759478844 105.30858527984955 H 0.0 **** 0.06
2489 H 93.45586189482785 73.79651306838238 104.77206525531025 H 0.0 **** 0.06
2490 H 94.86102291230821 74.80067624842522 104.34070952515478 H 0.0 **** 0.06
2491 C 66.02932855275174 99.29271796987118 12.482584761280918 C 0.0 **** -0.24
2492 H 66.08157865497662 98.45254553381378 11.789603367037046 H 0.0 **** 0.06
2493 H 65.4049933032909 99.02162014736965 13.334163561988404 H 0.0 **** 0.06
2494 H 65.59732134617548 100.15561350486979 11.975030747749145 H 0.0 **** 0.06
2495 H 67.03236263817018 99.53928254134865 12.830274969618557 H 0.0 **** 0.06
2496 C 54.99475938551491 73.26592330036647 32.82161064761658 C 0.0 **** -0.24
2497 H 54.520409913737026 73.2047961677986 31.84260402605713 H 0.0 **** 0.06
2498 H 55.98941253839363 72.82156663125943 32.77186842538384 H 0.0 **** 0.06
2499 H 54.390905972133446 72.7274879785245 33.55193003932507 H 0.0 **** 0.06
2500 H 55.07890547652921 74.31160224592676 33.11930008967548 H 0.0 **** 0.06
2501 C 22.020770831805578 114.58537341974233 38.72499365632311 C 0.0 **** -0.24
2502 H 21.067660029620328 114.21798840067058 38.34375088762397 H 0.0 **** 0.06
2503 H 22.835714803314232 114.13783479995746 38.155406511101035 H 0.0 **** 0.06
2504 H 22.120377197057195 114.31435315625163 39.776008664994265 H 0.0 **** 0.06
2505 H 22.059287800365695 115.66915281485367 38.6242488235103 H 0.0 **** 0.06
2506 C 59.69515459803969 51.19934718596875 23.2639461226298 C 0.0 **** -0.24
2507 H 59.24020614026466 51.60187689544068 22.358598823790793 H 0.0 **** 0.06
2508 H 60.502561596396475 51.856547602133105 23.58731052010758 H 0.0 **** 0.06
2509 H 60.09435001784672 50.20580274790581 23.058455326796707 H 0.0 **** 0.06
2510 H 58.94223718554579 51.13376143397733 24.048765711965473 H 0.0 **** 0.06
2511 C 74.27579534468424 3.5755054677291582 4.234433156881977 C 0.0 **** -0.24
2512 H 74.50829855804551 2.7826224109044375 4.945300708847057 H 0.0 **** 0.06
2513 H 75.20217063713704 4.0223796017690745 3.873324723466638 H 0.0 **** 0.06
2514 H 73.67176315423268 4.337590323387246 4.726040423624028 H 0.0 **** 0.06
2515 H 73.72128787694197 3.158290994875941 3.393834251299367 H 0.0 **** 0.06
2516 C 73.44489733549099 42.38845483063429 14.08246595557722 C 0.0 **** -0.24
2517 H 72.64408252487422 42.355568961063156 13.344031734467933 H 0.0 **** 0.06
2518 H 73.4926480872042 41.43543234198884 14.609812139322429 H 0.0 **** 0.06
2519 H 73.24960934897078 43.18962856682771 14.795545358621581 H 0.0 **** 0.06
2520 H 74.39535194688347 42.5730001328503 13.579737253740035 H 0.0 **** 0.06
2521 C 55.19789644514623 95.77026415152463 22.840122522512363 C 0.0 **** -0.24
2522 H 54.9468217833315 96.671609368401 22.281122280808326 H 0.0 **** 0.06
2523 H 54.328486664962924 95.44306675605475 23.411077434312293 H 0.0 **** 0.06
2524 H 56.02168594934449 95.98317805479542 23.52180244708592 H 0.0 **** 0.06
2525 H 55.494604591058646 94.9840424728001 22.145945519884584 H 0.0 **** 0.06
2526 C 55.58403102516538 34.208514848872234 73.36825499581269 C 0.0 **** -0.24
2527 H 56.55279279914067 33.71797917700318 73.45767696295209 H 0.0 **** 0.06
2528 H 54.79616069090126 33.51099685733178 73.65375804770866 H 0.0 **** 0.06
2529 H 55.43163348331345 34.52701523055011 72.33723005098477 H 0.0 **** 0.06
2530 H 55.55612993483114 35.07780801421414 74.02511713991524 H 0.0 **** 0.06
2531 C 9.412485739573953 50.65641238874582 47.82804695828847 C 0.0 **** -0.24
2532 H 8.938055607270584 49.859373224580565 48.399197110653546 H 0.0 **** 0.06
2533 H 8.80429421545145 50.88832425368025 46.95333559866572 H 0.0 **** 0.06
2534 H 10.40293263574874 50.333019896819735 47.50679589440384 H 0.0 **** 0.06
2535 H 9.50466049982515 51.54493217990262 48.452859229430686 H 0.0 **** 0.06
2536 C 92.15961701564078 37.01146265416601 113.63592329765419 C 0.0 **** -0.24
2537 H 91.32663846719996 36.740791746196734 112.98724622019647 H 0.0 **** 0.06
2538 H 92.99104865243675 37.36974354162025 113.02757282382998 H 0.0 **** 0.06
2539 H 92.47527885053742 36.13728776228399 114.20524993607917 H 0.0 **** 0.06
2540 H 91.84484393856744 37.79839056990246 114.32151818288236 H 0.0 **** 0.06
2541 C 47.25567684690583 97.42745178866696 34.88840694286489 C 0.0 **** -0.24
2542 H 48.32265987149907 97.3125136470992 35.08285872041117 H 0.0 **** 0.06
2543 H 47.008504345664164 96.96432050340076 33.9336582450083 H 0.0 **** 0.06
2544 H 47.005704517572326 98.48826265028535 34.85493809886023 H 0.0 **** 0.06
2545 H 46.68795789446517 96.94504102753712 35.68489303191535 H 0.0 **** 0.06
2546 C 49.83154004985272 99.92806561651025 19.22291084649359 C 0.0 **** -0.24
2547 H 50.705406249494075 99.56348433957709 18.682935546322796 H 0.0 **** 0.06
2548 H 49.32549343083895 99.08936008070128 19.70187207244956 H 0.0 **** 0.06
2549 H 49.149370590258286 100.41309404187541 18.524602727998484 H 0.0 **** 0.06
2550 H 50.14592739581374 100.64445306335034 19.981527057665204 H 0.0 **** 0.06
2551 C 23.37781105298032 16.859197599074832 93.32810039963726 C 0.0 **** -0.24
2552 H 23.331868690622542 16.58147437596685 92.27473146236045 H 0.0 **** 0.06
2553 H 22.813043917863297 17.778926033296955 93.48599832185917 H 0.0 **** 0.06
2554 H 24.417539458944532 17.016980698671063 93.61612704129166 H 0.0 **** 0.06
2555 H 22.94963731347204 16.060749201647695 93.93367643953272 H 0.0 **** 0.06
2556 C 96.12598915992717 40.63166240915237 33.029751173847814 C 0.0 **** -0.24
2557 H 96.13524602023955 41.319044637265364 32.183641269452295 H 0.0 **** 0.06
2558 H 95.81019895797371 39.64408763808527 32.69100837730829 H 0.0 **** 0.06
2559 H 95.43146603217318 40.99559048508527 33.785957403491494 H 0.0 **** 0.06
2560 H 97.12658027864356 40.566824130132176 33.455834860654505 H 0.0 **** 0.06
2561 C 18.52108592490444 89.76255993924167 36.27916821253734 C 0.0 **** -0.24
2562 H 17.484399999779924 90.0167645264992 36.0572778949205 H 0.0 **** 0.06
2563 H 19.165659071778265 90.14595064412637 35.487302647590525 H 0.0 **** 0.06
2564 H 18.62421805843971 88.68029826878029 36.340619540151124 H 0.0 **** 0.06
2565 H 18.808733375730526 90.20985546655808 37.23091536991552 H 0.0 **** 0.06
2566 C 35.73457155822223 13.595928428245486 21.017970294871603 C 0.0 **** -0.24
2567 H 35.99738499823525 14.05641055800072 21.970376339788956 H 0.0 **** 0.06
2568 H 35.5862845933579 12.525028262932608 21.160486387756563 H 0.0 **** 0.06
2569 H 36.53978472599118 13.760103707472354 20.301145170587432 H 0.0 **** 0.06
2570 H 34.81497286868165 14.043447383981345 20.639280353597627 H 0.0 **** 0.06
2571 C 66.22884458681634 74.36830615668617 84.58567810284279 C 0.0 **** -0.24
2572 H 66.96416572620777 75.16731677664967 84.67736661208119 H 0.0 **** 0.06
2573 H 65.53116069823997 74.41886447796577 85.4217271590206 H 0.0 **** 0.06
2574 H 66.73673251775409 73.4039705045563 84.59371281039367 H 0.0 **** 0.06
2575 H 65.68285440451254 74.48377757993705 83.64936990728617 H 0.0 **** 0.06
2576 C 76.94153667437268 49.5391293477149 100.67350305581871 C 0.0 **** -0.24
2577 H 76.05988243025038 49.02094276987653 100.29616575819719 H 0.0 **** 0.06
2578 H 77.01777567505579 50.51859712478026 100.20088748387016 H 0.0 **** 0.06
2579 H 77.83181557081957 48.95367517642172 100.44357943407047 H 0.0 **** 0.06
2580 H 76.85624344528333 49.66089149747743 101.75331832205836 H 0.0 **** 0.06
2581 C 19.64815365342116 67.3668808813353 56.637643375346975 C 0.0 **** -0.24
2582 H 20.64361274381207 67.73732594352913 56.882462942935426 H 0.0 **** 0.06
2583 H 19.368086031692826 67.71020797883716 55.64019474141346 H 0.0 **** 0.06
2584 H 18.93056126685667 67.74267602603857 57.366773763694844 H 0.0 **** 0.06
2585 H 19.65122446156448 66.27721038398155 56.65908464418897 H 0.0 **** 0.06
2586 C 53.13325217740271 91.19771630761232 85.78114964657269 C 0.0 **** -0.24
2587 H 53.38117328884192 92.2310518354571 86.01791453475505 H 0.0 **** 0.06
2588 H 54.05135321929714 90.62882520686287 85.62777275161741 H 0.0 **** 0.06
2589 H 52.531606734233605 91.16750623719054 84.87242025280409 H 0.0 **** 0.06
2590 H 52.568831176328274 90.76088471174506 86.60499007764886 H 0.0 **** 0.06
2591 C 61.23488880869349 70.33656564115648 74.81164598557211 C 0.0 **** -0.24
2592 H 60.97563855098456 69.29222877131917 74.98699934389032 H 0.0 **** 0.06
2593 H 60.564982668956496 70.97817268586823 75.38431006283503 H 0.0 **** 0.06
2594 H 61.13552369493241 70.56156855417191 73.74950180498269 H 0.0 **** 0.06
2595 H 62.26383276575839 70.51342835901801 75.12549929713862 H 0.0 **** 0.06
2596 C 99.82739464089437 2.2728664002783034 73.83756433692307 C 0.0 **** -0.24
2597 H 100.66902431153531 2.395335289306729 73.15528662446258 H 0.0 **** 0.06
2598 H 98.97639663257854 2.84620435477035 73.46932396841058 H 0.0 **** 0.06
2599 H 100.10764306964924 2.6329023127756273 74.8275329884479 H 0.0 **** 0.06
2600 H 99.55779260426021 1.2189432283187216 73.89647601233679 H 0.0 **** 0.06
2601 C 5.740811405035117 9.755730452074431 108.88599595721291 C 0.0 **** -0.24
2602 H 5.357865423068063 10.365734414881729 108.06782451509764 H 0.0 **** 0.06
2603 H 5.797578290996171 10.359094300181141 109.79303160257197 H 0.0 **** 0.06
2604 H 6.734772489962495 9.388948765816451 108.6313540975222 H 0.0 **** 0.06
2605 H 5.0725226369123675 8.911402716866405 109.05368237618919 H 0.0 **** 0.06
2606 C 42.07485764259701 92.25272418582671 84.65088653544765 C 0.0 **** -0.24
2607 H 42.186816779365586 93.02472993420184 85.41276270160435 H 0.0 **** 0.06
2608 H 41.62732432839931 92.68806577735134 83.75647908153238 H 0.0 **** 0.06
2609 H 41.43127310394243 91.45935736889604 85.02940857114211 H 0.0 **** 0.06
2610 H 43.05266106967258 91.84099126843901 84.40384130884695 H 0.0 **** 0.06
2611 C 0.8504002995025814 47.99403552754782 89.4044305344517 C 0.0 **** -0.24
2612 H 0.9177600858126596 47.836486291408534 88.32817970967147 H 0.0 **** 0.06
2613 H 0.9405341863021448 49.05912766234934 89.6217682659829 H 0.0 **** 0.06
2614 H 1.6545890414660676 47.45206657744791 89.9017725416104 H 0.0 **** 0.06
2615 H -0.11161583349260695 47.62922588282996 89.76544977814439 H 0.0 **** 0.06
2616 C 59.007972354326846 30.944507880412743 101.55976368831475 C 0.0 **** -0.24
2617 H 59.568705739049186 31.46053646373788 102.3389013642209 H 0.0 **** 0.06
2618 H 59.29895644000603 31.335178486274643 100.58428957385854 H 0.0 **** 0.06
2619 H 57.94139569326216 31.106109086545942 101.71300920460399 H 0.0 **** 0.06
2620 H 59.224264815151265 29.877762599151552 101.60358100382865 H 0.0 **** 0.06
2621 C 32.33364728636178 77.62720695912228 64.24768920273118 C 0.0 **** -0.24
2622 H 32.965136196457934 78.5156575258504 64.2777119553532 H 0.0 **** 0.06
2623 H 31.61757518492834 77.71866831574371 63.43176613120261 H 0.0 **** 0.06
2624 H 31.79788242892289 77.53055125064873 65.19235300320508 H 0.0 **** 0.06
2625 H 32.954618629028914 76.74547949600253 64.09043393634806 H 0.0 **** 0.06
2626 C 94.70945210011712 53.18024980338625 102.53956732108617 C 0.0 **** -0.24
2627 H 94.15942241689933 53.83001924564318 101.85933063641238 H 0.0 **** 0.06
2628 H 94.36878314296163 53.35066964700899 103.56096426555598 H 0.0 **** 0.06
2629 H 95.77507855386443 53.400563954773034 102.47012706976602 H 0.0 **** 0.06
2630 H 94.53532420633621 52.13915469112583 102.26774677706555 H 0.0 **** 0.06
2631 C 93.06505324137774 79.05243661917308 33.96265023408631 C 0.0 **** -0.24
2632 H 92.16703078793091 78.50109361946105 34.24197720207786 H 0.0 **** 0.06
2633 H 93.89256186382266 78.747567600454 34.60319322340729 H 0.0 **** 0.06
2634 H 92.88608650953546 80.12162110966918 34.08297267580133 H 0.0 **** 0.06
2635 H 93.31263029392025 78.84006384704134 32.92232653113146 H 0.0 **** 0.06
2636 C 96.07984927174152 92.46180673709887 48.98798023589626 C 0.0 **** -0.24
2637 H 96.79664086487156 91.96347201620864 48.33503360376821 H 0.0 **** 0.06
2638 H 96.27968280410886 93.53338833833777 48.995816492824105 H 0.0 **** 0.06
2639 H 96.17433259961132 92.0662048838598 49.99951919752209 H 0.0 **** 0.06
2640 H 95.06880647678128 92.28254981312298 48.62092105323228 H 0.0 **** 0.06
2641 C 0.5303383724618325 14.738270015787112 30.039900935210852 C 0.0 **** -0.24
2642 H -0.0649032161211629 14.52334620375894 30.926394066170246 H 0.0 **** 0.06
2643 H 0.6194427296641649 15.817619386785868 29.91459991750284 H 0.0 **** 0.06
2644 H 0.043241999606594916 14.309079024551444 29.163544123635944 H 0.0 **** 0.06
2645 H 1.5227970772255937 14.301290102164451 30.153902195186106 H 0.0 **** 0.06
2646 C 78.56340087505998 55.9111186697648 111.03238460242997 C 0.0 **** -0.24
2647 H 79.20922310764158 56.13859840181565 111.88062784292894 H 0.0 **** 0.06
2648 H 79.02148709142651 56.2847735030521 110.11657400349057 H 0.0 **** 0.06
2649 H 77.59449756017113 56.38931805084058 111.17627930907874 H 0.0 **** 0.06
2650 H 78.42831113311607 54.832015236058574 110.95827986431965 H 0.0 **** 0.06
2651 C 73.26593075834504 61.971298648083945 54.63263098034861 C 0.0 **** -0.24
2652 H 73.13373161891772 62.65402548418166 53.79406593007337 H 0.0 **** 0.06
2653 H 74.31996111913966 61.70771761589958 54.724031441417026 H 0.0 **** 0.06
2654 H 72.67967837717518 61.06858162003206 54.461841466112105 H 0.0 **** 0.06
2655 H 72.9310700604737 62.45367725710025 55.550834195955076 H 0.0 **** 0.06
2656 C 85.16662054691272 84.29801017369465 62.297562037033366 C 0.0 **** -0.24
2657 H 84.66642962512964 84.6594440254263 61.3987691744237 H 0.0 **** 0.06
2658 H 84.87779589411912 83.2628986338664 62.481533288136355 H 0.0 **** 0.06
2659 H 84.87417048641663 84.91346978041469 63.14761634745282 H 0.0 **** 0.06
2660 H 86.2461482848638 84.35578045421411 62.16008333019821 H 0.0 **** 0.06
2661 C 31.706177300644214 85.02316367636871 4.758957189064915 C 0.0 **** -0.24
2662 H 32.062671651392435 84.52357941314037 3.858008065462485 H 0.0 **** 0.06
2663 H 32.49515367663324 85.02181119404443 5.5110399071659515 H 0.0 **** 0.06
2664 H 30.83363111194896 84.49675646482919 5.145643824081617 H 0.0 **** 0.06
2665 H 31.43327761205157 86.05128650661754 4.519956766679485 H 0.0 **** 0.06
2666 C 113.55355687908967 16.85532335446777 109.7333331839458 C 0.0 **** -0.24
2667 H 113.57112987058748 17.939437960391746 109.61962873381313 H 0.0 **** 0.06
2668 H 112.58782245604944 16.47139113999997 109.40186501124495 H 0.0 **** 0.06
2669 H 113.70695780474362 16.598214734329485 110.78127319274617 H 0.0 **** 0.06
2670 H 114.34692816905549 16.413283215358067 109.13052269660056 H 0.0 **** 0.06
2671 C 68.96369125233585 61.071603834238545 111.38108079465091 C 0.0 **** -0.24
2672 H 68.46114474879988 61.115168080835645 110.41432995345929 H 0.0 **** 0.06
2673 H 69.5519368821862 61.977815320916335 111.52527782067104 H 0.0 **** 0.06
2674 H 69.62114037767023 60.20302419566136 111.40929404283813 H 0.0 **** 0.06
2675 H 68.21921607072665 60.99060253159848 112.1736320592056 H 0.0 **** 0.06
2676 C 111.37968644921384 102.7021738025272 63.23436564818791 C 0.0 **** -0.24
2677 H 111.07934403575405 101.66440553946364 63.09106732670754 H 0.0 **** 0.06
2678 H 110.4985003621504 103.30856847538189 63.44686181016687 H 0.0 **** 0.06
2679 H 111.86373537624146 103.06833441641925 62.329433076884094 H 0.0 **** 0.06
2680 H 112.07628007316967 102.76745366262799 64.07120071352028 H 0.0 **** 0.06
2681 C 104.20371100318874 36.91356805068472 20.454464205349158 C 0.0 **** -0.24
2682 H 104.72026634641765 36.29153566035666 19.724001199306507 H 0.0 **** 0.06
2683 H 103.18116787589867 36.55514973585974 20.57810037228597 H 0.0 **** 0.06
2684 H 104.18780346607474 37.94630256726481 20.10596407316392 H 0.0 **** 0.06
2685 H 104.72642421379629 36.86072564259433 21.409929324003805 H 0.0 **** 0.06
2686 C 97.15239446748186 8.994552779561815 31.509330256623684 C 0.0 **** -0.24
2687 H 97.32706511849287 7.941717822697086 31.72987198502048 H 0.0 **** 0.06
2688 H 96.56176645150501 9.440070664617963 32.31014568911033 H 0.0 **** 0.06
2689 H 96.61291412351915 9.084076620612336 30.5666615019733 H 0.0 **** 0.06
2690 H 98.10823519052485 9.51346942915933 31.43140055048596 H 0.0 **** 0.06
2691 C 25.677804510689356 29.89394674373972 81.02687145372289 C 0.0 **** -0.24
2692 H 25.435614215497964 29.01609008111899 80.4287364813147 H 0.0 **** 0.06
2693 H 25.48448973601087 29.680879553328225 82.07901252424384 H 0.0 **** 0.06
2694 H 25.061373312981033 30.733756947892488 80.70734943282213 H 0.0 **** 0.06
2695 H 26.730748833012555 30.144386902459672 80.89451589358526 H 0.0 **** 0.06
2696 C 106.62595629684478 38.725077392281435 91.35918192709417 C 0.0 **** -0.24
2697 H 107.45590071361792 39.35476831040067 91.6805409261577 H 0.0 **** 0.06
2698 H 106.98915632610243 37.714810437261235 91.16824624081104 H 0.0 **** 0.06
2699 H 106.19235985892388 39.134257205646946 90.44647113157643 H 0.0 **** 0.06
2700 H 105.86789760263068 38.697173562136186 92.14092886064901 H 0.0 **** 0.06
2701 C 72.45644505012473 82.81263281687518 84.52676981317606 C 0.0 **** -0.24
2702 H 71.82024446686441 83.03800315320589 83.67056421560213 H 0.0 **** 0.06
2703 H 73.4995715294408 82.79768533391541 84.21037337523003 H 0.0 **** 0.06
2704 H 72.18610527338225 81.83875602804241 84.93396918175881 H 0.0 **** 0.06
2705 H 72.31979070874178 83.5773083504574 85.29146314247745 H 0.0 **** 0.06
2706 C 52.52185663956776 19.741589086611512 108.89231521440651 C 0.0 **** -0.24
2707 H 53.37909216039323 19.39124800607385 109.46695452471668 H 0.0 **** 0.06
2708 H 52.263998873228786 18.999338318386748 108.13556211678863 H 0.0 **** 0.06
2709 H 52.77153418123409 20.68435730889398 108.40592838534266 H 0.0 **** 0.06
2710 H 51.672608056952384 19.89107195111984 109.55989573313549 H 0.0 **** 0.06
2711 C 82.54069386925042 35.647688690307575 44.540054478870644 C 0.0 **** -0.24
2712 H 83.33896399546825 35.598679592163364 45.280883001639495 H 0.0 **** 0.06
2713 H 82.22193496107144 34.63676365979029 44.282703735150136 H 0.0 **** 0.06
2714 H 82.9057589330946 36.152976304914034 43.64653625028586 H 0.0 **** 0.06
2715 H 81.69698884291643 36.201499792846505 44.952841476024915 H 0.0 **** 0.06
2716 C 110.7026416526479 50.226048940590275 91.36061532000241 C 0.0 **** -0.24
2717 H 111.26679755035843 50.47768968183978 90.46245551442865 H 0.0 **** 0.06
2718 H 110.15979386050866 51.10545509555669 91.70753760434383 H 0.0 **** 0.06
2719 H 111.38879233685923 49.892285971294086 92.13911997244878 H 0.0 **** 0.06
2720 H 109.99588498649183 49.427687207617396 91.13393595798198 H 0.0 **** 0.06
2721 C 76.16730756018808 95.83328008588285 14.517894508626284 C 0.0 **** -0.24
2722 H 76.01849438575718 95.04611105335925 15.257183039388678 H 0.0 **** 0.06
2723 H 75.71837335964909 96.76003812115025 14.878227296875991 H 0.0 **** 0.06
2724 H 75.69763187221028 95.54279923690007 13.57806867467616 H 0.0 **** 0.06
2725 H 77.23515248711163 95.98461794318362 14.359373080477553 H 0.0 **** 0.06
2726 C 62.01083968065754 47.63336392156978 23.2843263077362 C 0.0 **** -0.24
2727 H 60.96507460703904 47.470826727586115 23.02309834766064 H 0.0 **** 0.06
2728 H 62.210843641896474 47.20597386636541 24.26702215902202 H 0.0 **** 0.06
2729 H 62.21851976639536 48.70325003797831 23.30409116449433 H 0.0 **** 0.06
2730 H 62.64839479008515 47.15352475118459 22.54178619606497 H 0.0 **** 0.06
2731 C 19.874757207882055 74.88558932908504 22.472910772026438 C 0.0 **** -0.24
2732 H 20.49700552786264 74.01770649285092 22.25838506417955 H 0.0 **** 0.06
2733 H 19.82186451596378 75.03618997212078 23.551065103598575 H 0.0 **** 0.06
2734 H 18.87125715384127 74.71877570938025 22.079561171954424 H 0.0 **** 0.06
2735 H 20.30734023724027 75.76780548563212 22.00280286493026 H 0.0 **** 0.06
2736 C 57.7801695163636 41.9026784421294 8.980396241666327 C 0.0 **** -0.24
2737 H 57.01102602608435 42.34246779479634 9.616020843839664 H 0.0 **** 0.06
2738 H 58.19296019199746 42.67187127258389 8.326224763562593 H 0.0 **** 0.06
2739 H 57.341947964448906 41.10803553019844 8.376165733060105 H 0.0 **** 0.06
2740 H 58.57438544993036 41.49050958047193 9.602772205603856 H 0.0 **** 0.06
2741 C 83.12287162281115 7.673076998705831 30.1912543739773 C 0.0 **** -0.24
2742 H 82.06961274775477 7.4099748865865855 30.086182617998645 H 0.0 **** 0.06
2743 H 83.70647481732121 6.769025230030767 30.364256282882707 H 0.0 **** 0.06
2744 H 83.24447879582621 8.351765412654949 31.035332382370086 H 0.0 **** 0.06
2745 H 83.46848366522175 8.159939308452284 29.27994909777101 H 0.0 **** 0.06
2746 C 37.72117631971557 52.76131451845765 49.59373156049571 C 0.0 **** -0.24
2747 H 38.127926599894124 53.68497586806291 50.00534652800718 H 0.0 **** 0.06
2748 H 38.433312548753065 51.95027597815712 49.750235614450446 H 0.0 **** 0.06
2749 H 37.542103834369385 52.88678470425933 48.52678257777882 H 0.0 **** 0.06
2750 H 36.78298731999527 52.523819766491954 50.094798006948224 H 0.0 **** 0.06
2751 C 12.7731093142269 104.72723900675695 94.05251244609565 C 0.0 **** -0.24
2752 H 12.215683271303675 104.83540667114389 94.9835199605543 H 0.0 **** 0.06
2753 H 13.22364594829196 105.68368074804445 93.78577109322976 H 0.0 **** 0.06
2754 H 12.095315567950024 104.4110555912049 93.25850378709899 H 0.0 **** 0.06
2755 H 13.554891181899507 103.97950261042297 94.18258283664946 H 0.0 **** 0.06
2756 C 2.787427134690443 115.2664544415037 91.55368601197151 C 0.0 **** -0.24
2757 H 2.2535808481581885 114.3944972667328 91.9305742567885 H 0.0 **** 0.06
2758 H 2.6063074189984707 116.11502748930769 92.21364390087356 H 0.0 **** 0.06
2759 H 2.433074884384798 115.50406171364739 90.55085491531005 H 0.0 **** 0.06
2760 H 3.8554002173181168 115.05249064652764 91.52143833046873 H 0.0 **** 0.06
2761 C 67.52209300123334 63.75831857403001 95.30518852405112 C 0.0 **** -0.24
2762 H 68.18218910090974 64.52806011087111 95.7052761173818 H 0.0 **** 0.06
2763 H 66.61271021298143 64.22322248523517 94.9225328741714 H 0.0 **** 0.06
2764 H 67.26446626206516 63.05385380894641 96.09565344230356 H 0.0 **** 0.06
2765 H 68.0275941699586 63.2301292326656 94.4974927379649 H 0.0 **** 0.06
2766 C 54.42331212566685 95.90153155836848 97.12312706781097 C 0.0 **** -0.24
2767 H 53.70157928308966 95.85467797125187 97.93782353667362 H 0.0 **** 0.06
2768 H 54.11175282082154 95.22835807632123 96.32400112631575 H 0.0 **** 0.06
2769 H 55.405084341441366 95.60149041525429 97.48893107475158 H 0.0 **** 0.06
2770 H 54.47305562240506 96.92060539806317 96.74082744300642 H 0.0 **** 0.06
2771 C 107.48976192465875 101.59670814129444 65.68264070226033 C 0.0 **** -0.24
2772 H 107.48953304524298 102.42707253410009 66.38852232759194 H 0.0 **** 0.06
2773 H 106.82884205669762 100.80979778754406 66.04851102511705 H 0.0 **** 0.06
2774 H 108.50128794652562 101.20412460701289 65.58249482627156 H 0.0 **** 0.06
2775 H 107.13665066861427 101.94456674831974 64.71198897200097 H 0.0 **** 0.06
2776 C 75.21329570211878 47.56467958392318 26.818615726729007 C 0.0 **** -0.24
2777 H 75.0484842935885 46.98518295899913 25.910048256388876 H 0.0 **** 0.06
2778 H 74.54439815373485 48.42559881265052 26.825697306990406 H 0.0 **** 0.06
2779 H 76.24735893640138 47.907196720654355 26.84767025976157 H 0.0 **** 0.06
2780 H 75.01216115091825 46.941088749546225 27.688751482429296 H 0.0 **** 0.06
2781 C 93.63341423960702 23.37970017108603 5.19349976436547 C 0.0 **** -0.24
2782 H 94.07261316601958 22.38144059608939 5.17992860794979 H 0.0 **** 0.06
2783 H 94.38917790689564 24.10540318535223 5.495068028844059 H 0.0 **** 0.06
2784 H 92.8049143126002 23.40122195208022 5.901348363194018 H 0.0 **** 0.06
2785 H 93.26654319244628 23.627942090173008 4.197837412831603 H 0.0 **** 0.06
2786 C 6.439165070953933 34.19578174642663 54.379772951914134 C 0.0 **** -0.24
2787 H 5.811856979249086 34.381889257910046 55.25063828471127 H 0.0 **** 0.06
2788 H 6.723578281639504 35.14665394039994 53.927072972979005 H 0.0 **** 0.06
2789 H 5.88678046228452 33.59868807121023 53.6545658630248 H 0.0 **** 0.06
2790 H 7.336029369775616 33.65657285934225 54.68664139150522 H 0.0 **** 0.06
2791 C 85.94072014689388 59.79422540647669 42.89176548623453 C 0.0 **** -0.24
2792 H 84.8832477636397 59.75171131118062 43.15475928950656 H 0.0 **** 0.06
2793 H 86.13672385265943 60.7059001706721 42.326431338179844 H 0.0 **** 0.06
2794 H 86.2001596214696 58.92636978500044 42.28531371233149 H 0.0 **** 0.06
2795 H 86.5418204362129 59.79461053653224 43.801689289449996 H 0.0 **** 0.06
2796 C 50.04952891868339 100.52000570755501 36.32702927083615 C 0.0 **** -0.24
2797 H 50.52783701414785 100.44773212087387 37.30365757397204 H 0.0 **** 0.06
2798 H 49.348246859358824 101.35509727811535 36.3262745645752 H 0.0 **** 0.06
2799 H 49.51276146571092 99.5944617854795 36.11696461404948 H 0.0 **** 0.06
2800 H 50.80780938646194 100.68142611473544 35.561622137702216 H 0.0 **** 0.06
2801 C 92.74860458989147 53.582245769708855 95.47320451894157 C 0.0 **** -0.24
2802 H 93.36419721284267 54.48189543534435 95.48997342273745 H 0.0 **** 0.06
2803 H 91.75963872675368 53.81225888643009 95.87036379096412 H 0.0 **** 0.06
2804 H 93.21594788302923 52.810732250417885 96.0856358512072 H 0.0 **** 0.06
2805 H 92.65492100224347 53.225597153922244 94.44766120294523 H 0.0 **** 0.06
2806 C 112.51381728134885 26.65218740617405 53.406607584295806 C 0.0 **** -0.24
2807 H 111.63733644931816 26.88149989699211 54.01239969351951 H 0.0 **** 0.06
2808 H 112.23739932080753 25.954960831296717 52.61566246545766 H 0.0 **** 0.06
2809 H 113.28215688328513 26.202904698512526 54.03524915837842 H 0.0 **** 0.06
2810 H 112.8986880915935 27.570763369217033 52.96308909017772 H 0.0 **** 0.06
2811 C 2.5383664689690164 72.40160460302158 110.51602465721575 C 0.0 **** -0.24
2812 H 3.366228861141778 71.81696361723826 110.11369047184591 H 0.0 **** 0.06
2813 H 2.0223871253455457 72.90949523275657 109.6993438336047 H 0.0 **** 0.06
2814 H 2.923614902873254 73.1405943708348 111.21828650923663 H 0.0 **** 0.06
2815 H 1.842256625798143 71.73900794893285 111.02980641524634 H 0.0 **** 0.06
2816 C 7.481320197046685 59.1164382603435 93.93377670021789 C 0.0 **** -0.24
2817 H 8.429784370642636 59.492151309113495 94.31747628840202 H 0.0 **** 0.06
2818 H 7.590134023863129 58.864670285935006 92.87837940023394 H 0.0 **** 0.06
2819 H 6.714556928622514 59.88438626166368 94.04713481891645 H 0.0 **** 0.06
2820 H 7.1894216735484235 58.22717286538972 94.49254166080615 H 0.0 **** 0.06
2821 C 61.85258055961858 11.375070526050251 60.26056197029609 C 0.0 **** -0.24
2822 H 62.28024379084747 10.377285356442428 60.368018903228524 H 0.0 **** 0.06
2823 H 62.49047314918962 12.099614164360986 60.76576635225411 H 0.0 **** 0.06
2824 H 60.857657664164996 11.393593743990692 60.704499174074975 H 0.0 **** 0.06
2825 H 61.78236903298842 11.62672826626661 59.20185249736958 H 0.0 **** 0.06
2826 C 67.02104969695401 34.024262782908046 47.893875951753046 C 0.0 **** -0.24
2827 H 67.46776763340387 34.46521153606797 47.00331141770425 H 0.0 **** 0.06
2828 H 67.45169098718526 34.48605703295413 48.783082446342235 H 0.0 **** 0.06
2829 H 67.22019983934285 32.952853430627485 47.90854455767288 H 0.0 **** 0.06
2830 H 65.94365581328958 34.192634428924 47.882025165477614 H 0.0 **** 0.06
2831 C 84.10792341513869 80.55627931358697 59.07118154516224 C 0.0 **** -0.24
2832 H 84.56510495658964 80.1700431648822 58.15979212084981 H 0.0 **** 0.06
2833 H 84.72610614577096 81.3573674282157 59.47678594245094 H 0.0 **** 0.06
2834 H 84.02442665106449 79.75407354031319 59.80424985094627 H 0.0 **** 0.06
2835 H 83.11460753315757 80.94444863366158 58.84140073276202 H 0.0 **** 0.06
2836 C 52.69434874016309 115.22529923887345 52.67251119736443 C 0.0 **** -0.24
2837 H 51.92183141061486 115.19951336494074 51.90382072460659 H 0.0 **** 0.06
2838 H 52.585331994742944 114.35856743163015 53.32534835823287 H 0.0 **** 0.06
2839 H 52.59356047182263 116.13763535753526 53.259117036818935 H 0.0 **** 0.06
2840 H 53.67715357403739 115.20288264197393 52.20033835541014 H 0.0 **** 0.06
2841 C 12.240964002301695 22.59721659794309 80.30859420815037 C 0.0 **** -0.24
2842 H 12.930699701139531 22.141423031717494 81.01918471931609 H 0.0 **** 0.06
2843 H 12.646608729598569 22.510744791232696 79.30116734762657 H 0.0 **** 0.06
2844 H 12.106275165265941 23.650032745895373 80.55839431026465 H 0.0 **** 0.06
2845 H 11.278705886665904 22.086112567907634 80.35898317312626 H 0.0 **** 0.06
2846 C 40.40224980462443 100.05524751201855 29.88072851613684 C 0.0 **** -0.24
2847 H 39.939632655725916 100.96044766981998 29.486779227648853 H 0.0 **** 0.06
2848 H 41.42524870468094 100.27631577053543 30.18816167299228 H 0.0 **** 0.06
2849 H 40.412311676595095 99.28637598415548 29.109194196507445 H 0.0 **** 0.06
2850 H 39.83329224943037 99.70110284385174 30.73988145458008 H 0.0 **** 0.06
2851 C 11.587729044703849 105.10549829306143 116.24405348664354 C 0.0 **** -0.24
2852 H 12.633975432281602 105.39510258732494 116.14059393629398 H 0.0 **** 0.06
2853 H 11.393319345888472 104.2230429431454 115.63407281604101 H 0.0 **** 0.06
2854 H 10.950234236213618 105.92506886418087 115.91352305012647 H 0.0 **** 0.06
2855 H 11.376390912683007 104.87915428851167 117.28937955052513 H 0.0 **** 0.06
2856 C 82.58300304742701 41.826484207726025 115.18535648405253 C 0.0 **** -0.24
2857 H 81.59987487874295 41.53299879723073 115.55190691852903 H 0.0 **** 0.06
2858 H 82.81110169483767 42.836461234222725 115.52670587583313 H 0.0 **** 0.06
2859 H 82.58690972119706 41.80142830858773 114.09526155502544 H 0.0 **** 0.06
2860 H 83.33376360745157 41.13493606824363 115.56662629390303 H 0.0 **** 0.06
2861 C 12.75887683247447 27.608145063659606 48.63911206721812 C 0.0 **** -0.24
2862 H 12.723502697854173 26.869279108550415 49.44047266573034 H 0.0 **** 0.06
2863 H 11.794458806696909 27.63773153762463 48.130764201658295 H 0.0 **** 0.06
2864 H 13.537295009052826 27.334080851129727 47.92688111617295 H 0.0 **** 0.06
2865 H 12.979521230682082 28.589253714403526 49.05901777075408 H 0.0 **** 0.06
2866 C 77.5339419239368 93.79712893137017 60.83271910147577 C 0.0 **** -0.24
2867 H 78.51149945705222 93.96996101337933 60.38365312540977 H 0.0 **** 0.06
2868 H 77.38609038461487 92.72744790477043 60.98362447685992 H 0.0 **** 0.06
2869 H 76.75746811153743 94.18168732270973 60.17129772474458 H 0.0 **** 0.06
2870 H 77.47989087655378 94.31065794366037 61.7931931841803 H 0.0 **** 0.06
2871 C 49.97829610748488 99.34378040596258 13.200716658057956 C 0.0 **** -0.24
2872 H 50.56799317062871 98.42958123328916 13.142217569818996 H 0.0 **** 0.06
2873 H 49.04882511592325 99.14287211716083 13.735269379807079 H 0.0 **** 0.06
2874 H 49.74939157954236 99.69332771868281 12.193500487414127 H 0.0 **** 0.06
2875 H 50.54414379874447 100.10899856862375 13.730946276702184 H 0.0 **** 0.06
2876 C 109.36553537896813 108.82421212688702 26.180842653164248 C 0.0 **** -0.24
2877 H 110.0727257425678 109.1797418607124 26.93024799392012 H 0.0 **** 0.06
2878 H 109.44867355799775 109.43756933222976 25.283860533208852 H 0.0 **** 0.06
2879 H 108.35276393295777 108.89306401128523 26.576185924913275 H 0.0 **** 0.06
2880 H 109.5901955896715 107.78603244184472 25.934019313676686 H 0.0 **** 0.06
2881 C 79.86096551649891 7.363036449876731 33.44606519838527 C 0.0 **** -0.24
2882 H 80.49639032652678 7.590364339472018 32.590393954011915 H 0.0 **** 0.06
2883 H 79.46363494065892 6.35237069345456 33.34583954953263 H 0.0 **** 0.06
2884 H 79.0368072996379 8.075977671629488 33.485117317535355 H 0.0 **** 0.06
2885 H 80.44702949917195 7.433433094950701 34.36290997246158 H 0.0 **** 0.06
2886 C 53.48948605344142 99.8055394025827 47.048764943224796 C 0.0 **** -0.24
2887 H 53.067515144856756 100.80903170527316 47.1025302387003 H 0.0 **** 0.06
2888 H 53.940593870163504 99.5493000750291 48.00673573513086 H 0.0 **** 0.06
2889 H 54.25039554846029 99.77329620529977 46.26856873824647 H 0.0 **** 0.06
2890 H 52.69924491497284 99.09078273556588 46.81525066337849 H 0.0 **** 0.06
2891 C 91.30299991985893 106.97568515826521 71.4123750432291 C 0.0 **** -0.24
2892 H 91.51596694211781 106.37965654173934 72.30026971653291 H 0.0 **** 0.06
2893 H 92.23899894703936 107.33381060162588 70.98380188891926 H 0.0 **** 0.06
2894 H 90.67975991999435 107.82647149475923 71.68820015368112 H 0.0 **** 0.06
2895 H 90.77781398411449 106.36188963089401 70.68037110489954 H 0.0 **** 0.06
2896 C 68.43787166506775 3.264293195827065 48.331223636123184 C 0.0 **** -0.24
2897 H 68.83023033784679 2.7599801549311564 49.214123956551475 H 0.0 **** 0.06
2898 H 69.18094610371736 3.2302550914433823 47.53338665184003 H 0.0 **** 0.06
2899 H 68.21353516241945 4.302250602852666 48.57529631136589 H 0.0 **** 0.06
2900 H 67.52789308646936 2.763367188064535 48.00199568391474 H 0.0 **** 0.06
2901 C 89.06144830003706 83.11973611986622 98.73924951129734 C 0.0 **** -0.24
2902 H 88.98821108001377 84.0644360343687 99.27766600794709 H 0.0 **** 0.06
2903 H 88.61561757406335 82.32437708353692 99.33741503516467 H 0.0 **** 0.06
2904 H 90.11005833982477 82.88922754618756 98.54986953604538 H 0.0 **** 0.06
2905 H 88.53055835718482 83.20046062670278 97.79005065982957 H 0.0 **** 0.06
2906 C 2.1300052598186685 21.317886679339892 18.541982531836396 C 0.0 **** -0.24
2907 H 2.0797799605150598 22.396113206612483 18.388346679586334 H 0.0 **** 0.06
2908 H 3.0589363746726885 20.933831383957454 18.120476330392876 H 0.0 **** 0.06
2909 H 1.2820310844304927 20.841443121869077 18.050597483464117 H 0.0 **** 0.06
2910 H 2.0987543450681443 21.102248921952366 19.60967708796983 H 0.0 **** 0.06
2911 C 114.6386790593997 58.87296223802349 52.40287116140473 C 0.0 **** -0.24
2912 H 115.12845837880684 59.48941843008697 51.64988983625072 H 0.0 **** 0.06
2913 H 114.27384874321166 59.50753576557065 53.21110027310759 H 0.0 **** 0.06
2914 H 115.35181725960086 58.15156564216056 52.80181454843219 H 0.0 **** 0.06
2915 H 113.80089799670702 58.34334308495903 51.95006063940454 H 0.0 **** 0.06
2916 C 39.57508640973398 89.59179096498025 95.95582312364121 C 0.0 **** -0.24
2917 H 39.32257465788307 89.30328762187418 94.93477136927748 H 0.0 **** 0.06
2918 H 38.66234138793569 89.6690667041459 96.54728825130047 H 0.0 **** 0.06
2919 H 40.08582828145086 90.554037479817 95.94585922990126 H 0.0 **** 0.06
2920 H 40.229441866753206 88.83740758118671 96.3929954333538 H 0.0 **** 0.06
2921 C 40.13461130225798 54.634942454096546 96.25941368551776 C 0.0 **** -0.24
2922 H 39.47600703041502 54.366175984792505 97.08624622782708 H 0.0 **** 0.06
2923 H 40.99701056956414 55.1776207879567 96.64506330440278 H 0.0 **** 0.06
2924 H 39.59238916525737 55.264642277285304 95.55426176389793 H 0.0 **** 0.06
2925 H 40.47064075669394 53.72942864339032 95.75370632036896 H 0.0 **** 0.06
2926 C 96.14778341659292 57.66397539557652 3.9417375602981792 C 0.0 **** -0.24
2927 H 95.32577336056244 56.956980277102865 3.828797988565668 H 0.0 **** 0.06
2928 H 96.47822431296004 57.995823672623494 2.9577784835328487 H 0.0 **** 0.06
2929 H 96.9753674279807 57.179075629148706 4.459256517606121 H 0.0 **** 0.06
2930 H 95.80973668220156 58.52331294922775 4.520509809956877 H 0.0 **** 0.06
2931 C 94.53599218849791 35.04770148645048 93.8189657403916 C 0.0 **** -0.24
2932 H 93.59549219068973 35.3016327025791 93.33026885889683 H 0.0 **** 0.06
2933 H 94.66776919879277 33.96601851960423 93.81409697730453 H 0.0 **** 0.06
2934 H 94.51829357957001 35.40712233502424 94.84844981001851 H 0.0 **** 0.06
2935 H 95.36110704485705 35.51734524145621 93.28465018652719 H 0.0 **** 0.06
2936 C 113.75315597986949 36.86972147203835 34.01543528405807 C 0.0 **** -0.24
2937 H 114.52906119090271 36.988985391328775 33.258622731660466 H 0.0 **** 0.06
2938 H 112.874660875062 36.40642058466507 33.56477278853386 H 0.0 **** 0.06
2939 H 113.48439823116324 37.84658156800938 34.416563130665935 H 0.0 **** 0.06
2940 H 114.12616603090315 36.23620858669349 34.82012086545396 H 0.0 **** 0.06
2941 C 45.58772433781131 11.189111190884717 0.18023445407308714 C 0.0 **** -0.24
2942 H 45.49154162913631 10.107909174841978 0.0806399957146482 H 0.0 **** 0.06
2943 H 44.8048669045416 11.56414915951376 0.8389610195606281 H 0.0 **** 0.06
2944 H 45.492974267418504 11.654844510625253 -0.8007986118445558 H 0.0 **** 0.06
2945 H 46.56436777844267 11.428230266121204 0.6035980655161666 H 0.0 **** 0.06
2946 C 91.96948522756935 48.89632926082848 33.5352567297283 C 0.0 **** -0.24
2947 H 92.29111637009873 48.09229946747374 34.19629787384139 H 0.0 **** 0.06
2948 H 91.6036718032974 48.472993557386815 32.59935051890352 H 0.0 **** 0.06
2949 H 92.81292525484776 49.5563125992457 33.3307819930441 H 0.0 **** 0.06
2950 H 91.17189266638036 49.4639644218627 34.01419239837267 H 0.0 **** 0.06
2951 C 15.46770159522211 39.812971482056525 44.21372598486694 C 0.0 **** -0.24
2952 H 14.589570597529189 39.7336034008606 44.85521384235835 H 0.0 **** 0.06
2953 H 15.714782382659735 38.82913434419498 43.813784008551096 H 0.0 **** 0.06
2954 H 16.30882077851973 40.19141168818004 44.79478752069387 H 0.0 **** 0.06
2955 H 15.256046522148623 40.49721070227832 43.391574641174685 H 0.0 **** 0.06
2956 C 53.591358762789895 92.84134972044544 82.28447595289123 C 0.0 **** -0.24
2957 H 52.86977926548457 93.20696414167284 83.01557932005741 H 0.0 **** 0.06
2958 H 53.602885329444234 93.5074492155984 81.4220094080402 H 0.0 **** 0.06
2959 H 53.308328321034 91.83829804360946 81.96610818221339 H 0.0 **** 0.06
2960 H 54.582918514902275 92.8124408487318 82.73657717933256 H 0.0 **** 0.06
2961 C 70.36595650544288 44.336512774252924 80.91244767785435 C 0.0 **** -0.24
2962 H 69.7556061559601 43.89761503006906 81.7021825885198 H 0.0 **** 0.06
2963 H 70.26019239995944 43.74694588876554 80.00204129688794 H 0.0 **** 0.06
2964 H 71.41159216436802 44.34243527216893 81.22310192638923 H 0.0 **** 0.06
2965 H 70.03676495953911 45.35819814645089 80.7245039138127 H 0.0 **** 0.06
2966 C 28.017794348021425 72.31071342571124 6.1498298048435345 C 0.0 **** -0.24
2967 H 27.90654908749275 71.25762720163135 5.893359911406833 H 0.0 **** 0.06
2968 H 27.17954898830152 72.87546488957389 5.740919659280394 H 0.0 **** 0.06
2969 H 28.950381069989135 72.68939549025617 5.732378222539978 H 0.0 **** 0.06
2970 H 28.03432952454955 72.42022795707999 7.234862617901854 H 0.0 **** 0.06
2971 C 25.911602019762313 22.411300352292844 24.527218065145235 C 0.0 **** -0.24
2972 H 26.794372611730125 21.836639381624373 24.246863259725444 H 0.0 **** 0.06
2973 H 26.07719908044254 23.46438693551147 24.297110915786334 H 0.0 **** 0.06
2974 H 25.727280097596974 22.297175354058542 25.59550449057332 H 0.0 **** 0.06
2975 H 25.049037845896123 22.048689557607958 23.9684189930868 H 0.0 **** 0.06
2976 C 80.99992850991481 92.35329274593897 75.69879572083966 C 0.0 **** -0.24
2977 H 80.4296900626793 92.79552537098394 76.51522289887845 H 0.0 **** 0.06
2978 H 82.0564219484549 92.59240053549635 75.82192601094516 H 0.0 **** 0.06
2979 H 80.64510119982475 92.75398113425322 74.74882655988523 H 0.0 **** 0.06
2980 H 80.86727701788283 91.27142258114748 75.7085165901351 H 0.0 **** 0.06
2981 C 92.19592306071033 80.22221763289471 68.49043168728997 C 0.0 **** -0.24
2982 H 93.02961367991162 79.92223145402136 69.1260969036081 H 0.0 **** 0.06
2983 H 91.40710050484688 79.47144748482353 68.54760849323046 H 0.0 **** 0.06
2984 H 92.53992185092392 80.31083954117017 67.45978044945556 H 0.0 **** 0.06
2985 H 91.80882488793372 81.18362218925668 68.8293982099033 H 0.0 **** 0.06
2986 C 68.02713659907124 0.4884844098046077 10.932625802609437 C 0.0 **** -0.24
2987 H 67.26878771151496 0.21364746569031112 10.200422616564538 H 0.0 **** 0.06
2988 H 67.63957241707737 0.3213672030555621 11.937996806718616 H 0.0 **** 0.06
2989 H 68.28272834290505 1.5419931705307395 10.811819281726798 H 0.0 **** 0.06
2990 H 68.91812896264571 -0.12016330151803345 10.779948006582003 H 0.0 **** 0.06
2991 C 8.494493112882338 95.89504770961796 86.44467514126768 C 0.0 **** -0.24
2992 H 9.305241412512515 95.19222388856639 86.63954151323139 H 0.0 **** 0.06
2993 H 7.5746141346056675 95.52063566322124 86.89349384915829 H 0.0 **** 0.06
2994 H 8.357489162594277 96.00111698667152 85.36876754204738 H 0.0 **** 0.06
2995 H 8.742405679782848 96.86392508799463 86.87767159045782 H 0.0 **** 0.06
2996 C 31.313093230617056 39.80514147850735 97.89869239176508 C 0.0 **** -0.24
2997 H 30.984629399377283 38.76586870294875 97.92464632417696 H 0.0 **** 0.06
2998 H 31.76213548840562 40.067391164853206 98.85735875527192 H 0.0 **** 0.06
2999 H 30.456565415946898 40.45142461344207 97.7088605339217 H 0.0 **** 0.06
3000 H 32.04946549380608 39.932868048148606 97.10476492419346 H 0.0 **** 0.06
3001 C 17.36916329438533 58.51732501039317 59.362354129776044 C 0.0 **** -0.24
3002 H 17.655861118881617 59.352273899789346 58.724093529329686 H 0.0 **** 0.06
3003 H 16.320436693860046 58.27244366732396 59.191489675006686 H 0.0 **** 0.06
3004 H 17.51282238825118 58.79226052874862 60.40709642729207 H 0.0 **** 0.06
3005 H 17.98792922470797 57.651001396897975 59.12705193402531 H 0.0 **** 0.06
3006 C 9.336295082620051 0.6668320512435457 35.233223731529705 C 0.0 **** -0.24
3007 H 10.206049957742383 0.028982084698341737 35.39463289098106 H 0.0 **** 0.06
3008 H 9.175085065864618 1.289380739203665 36.113030755058475 H 0.0 **** 0.06
3009 H 8.45772709456438 0.04531380464891299 35.06151380584356 H 0.0 **** 0.06
3010 H 9.50821296450508 1.301551502437789 34.36370924208589 H 0.0 **** 0.06
3011 C 84.89957917365467 3.923973409152893 85.73005800102047 C 0.0 **** -0.24
3012 H 84.30107661882784 4.468049205269438 84.99886293144314 H 0.0 **** 0.06
3013 H 84.29407659817667 3.1380248192419913 86.18211822430155 H 0.0 **** 0.06
3014 H 85.24024790869956 4.612052968440537 86.50396130094234 H 0.0 **** 0.06
3015 H 85.76264071738404 3.479360205143223 85.23411258068631 H 0.0 **** 0.06
3016 C 47.71370235971307 109.80910308527388 34.89809122033072 C 0.0 **** -0.24
3017 H 48.15667550495587 110.40156035805953 34.0973127493843 H 0.0 **** 0.06
3018 H 46.67424465991036 109.58895363969009 34.65589946212217 H 0.0 **** 0.06
3019 H 47.760063182399705 110.3693606405936 35.83185784144811 H 0.0 **** 0.06
3020 H 48.26754314775215 108.87647586079905 35.006869996952474 H 0.0 **** 0.06
3021 C 86.50407870044222 96.90663430346035 87.01732352195245 C 0.0 **** -0.24
3022 H 85.99070087621826 96.04022979123317 86.59946536700585 H 0.0 **** 0.06
3023 H 86.35546780220676 96.93015298331125 88.09771360943958 H 0.0 **** 0.06
3024 H 86.10068038665455 97.81706791746228 86.57429035351876 H 0.0 **** 0.06
3025 H 87.56970004035409 96.83719277705336 86.79842397791901 H 0.0 **** 0.06
3026 C 66.67210400302685 69.84312405438908 30.602578325724238 C 0.0 **** -0.24
3027 H 66.39825776128728 69.02016338696535 29.942319326104766 H 0.0 **** 0.06
3028 H 67.6002431825298 70.29557424427787 30.252429082587973 H 0.0 **** 0.06
3029 H 66.80941898077873 69.4656576479561 31.615297243519365 H 0.0 **** 0.06
3030 H 65.87863268916632 70.59086815403182 30.59718961353166 H 0.0 **** 0.06
3031 C 90.59690781224737 75.75029692922521 4.938777614968984 C 0.0 **** -0.24
3032 H 91.48652538061268 75.44874901038756 5.491939809722439 H 0.0 **** 0.06
3033 H 89.99041435438147 74.8720631030229 4.72012508295505 H 0.0 **** 0.06
3034 H 90.8954265273077 76.2280078637074 4.004699510640805 H 0.0 **** 0.06
3035 H 90.01803112602627 76.45291383742912 5.537320984380344 H 0.0 **** 0.06
3036 C 29.651090117477125 45.28826192065574 33.84173781121177 C 0.0 **** -0.24
3037 H 29.220497428639646 45.532762356179944 34.812920829565826 H 0.0 **** 0.06
3038 H 30.545266207352398 45.89140877379597 33.679315359259874 H 0.0 **** 0.06
3039 H 28.92290419721799 45.498407427208164 33.058392999809826 H 0.0 **** 0.06
3040 H 29.915479574728636 44.231351857854364 33.81836550386913 H 0.0 **** 0.06
3041 C 103.2719362630836 60.12562530491447 11.76401336630255 C 0.0 **** -0.24
3042 H 103.30349254040374 60.6514355103161 12.71800642912359 H 0.0 **** 0.06
3043 H 103.21151787309913 59.052037385156105 11.941972774198973 H 0.0 **** 0.06
3044 H 104.17427634156567 60.35038236913142 11.194868707688073 H 0.0 **** 0.06
3045 H 102.39701837689674 60.450369104143185 11.200226914915874 H 0.0 **** 0.06
3046 C 69.3721979538019 69.88565690922499 48.01375789530389 C 0.0 **** -0.24
3047 H 69.61466362600433 68.84065500751981 47.82121601354035 H 0.0 **** 0.06
3048 H 68.8049082669068 69.96187511676752 48.94122118005787 H 0.0 **** 0.06
3049 H 68.77663228635134 70.27795106491502 47.18907806012862 H 0.0 **** 0.06
3050 H 70.29381496100422 70.46231392195972 48.10165463046156 H 0.0 **** 0.06
3051 C 44.38082419539193 70.08302162192984 108.18920605858091 C 0.0 **** -0.24
3052 H 44.097071733938826 70.02579551413928 109.24035101192186 H 0.0 **** 0.06
3053 H 45.43851157851089 69.84289484709282 108.08513183414487 H 0.0 **** 0.06
3054 H 44.198014796637636 71.09223148328462 107.81844708127403 H 0.0 **** 0.06
3055 H 43.78722329578882 69.37174945512234 107.61477342532748 H 0.0 **** 0.06
3056 C 76.27394604734937 13.83207043494118 80.55366905881812 C 0.0 **** -0.24
3057 H 75.99789851942003 14.70435748364044 79.96099119785899 H 0.0 **** 0.06
3058 H 77.11416165338798 13.322700254529728 80.08111984871158 H 0.0 **** 0.06
3059 H 75.4246572118565 13.151844698866022 80.61479487848945 H 0.0 **** 0.06
3060 H 76.55834421985634 14.149600686509569 81.55657491219603 H 0.0 **** 0.06
3061 C 97.97840725297053 14.295139322675027 91.13058444372751 C 0.0 **** -0.24
3062 H 97.59847127780307 15.03751065287878 90.42922548736033 H 0.0 **** 0.06
3063 H 98.4263434435405 13.469459799402301 90.5777178625857 H 0.0 **** 0.06
3064 H 97.15726415578774 13.920083352937837 91.74249217582383 H 0.0 **** 0.06
3065 H 98.73023038265075 14.753317410444453 91.77242923056258 H 0.0 **** 0.06
3066 C 8.612769564035261 44.6125830583117 112.8435980307579 C 0.0 **** -0.24
3067 H 8.157927872410681 43.88703271123233 112.16860266609356 H 0.0 **** 0.06
3068 H 9.68119535829942 44.41248894381707 112.9243670367876 H 0.0 **** 0.06
3069 H 8.151565132287658 44.531333647658755 113.82747959175431 H 0.0 **** 0.06
3070 H 8.459706760618161 45.6181055784109 112.45231402099638 H 0.0 **** 0.06
3071 C 103.01339773643889 11.11332692581032 31.08441687811421 C 0.0 **** -0.24
3072 H 103.28502088009714 10.868671677270761 30.05753292954404 H 0.0 **** 0.06
3073 H 102.78133805101965 10.196280680869435 31.626473594850665 H 0.0 **** 0.06
3074 H 102.14146328380625 11.766634839475284 31.083423756368205 H 0.0 **** 0.06
3075 H 103.84724675244226 11.620785638481745 31.568843759127418 H 0.0 **** 0.06
3076 C 95.41625767303253 12.742702768320655 20.091954993711738 C 0.0 **** -0.24
3077 H 95.15999415253123 11.721417608852775 19.808694257850135 H 0.0 **** 0.06
3078 H 96.46706288080654 12.929244195399136 19.869054321326644 H 0.0 **** 0.06
3079 H 95.24135260377207 12.878753841761423 21.15909850585473 H 0.0 **** 0.06
3080 H 94.79588126580381 13.441162770390804 19.530341509785217 H 0.0 **** 0.06
3081 C 56.410615751589184 13.265668003747578 23.243992340735275 C 0.0 **** -0.24
3082 H 57.07652401803309 13.821047430453461 23.904355748319347 H 0.0 **** 0.06
3083 H 55.74814386649292 12.639177465751914 23.84115527029107 H 0.0 **** 0.06
3084 H 57.00128160376668 12.638592817221195 22.576269704687036 H 0.0 **** 0.06
3085 H 55.817626752656274 13.965332428852776 22.655793693150343 H 0.0 **** 0.06
3086 C 52.62799791683338 32.66365118338313 84.55895722209615 C 0.0 **** -0.24
3087 H 52.96777695082329 33.678269015589166 84.3480404082699 H 0.0 **** 0.06
3088 H 52.79054040785363 32.03673002405659 83.68262182745016 H 0.0 **** 0.06
3089 H 51.565749971709664 32.68035853740726 84.80334246804574 H 0.0 **** 0.06
3090 H 53.18811112634751 32.26193489848819 85.40314390999336 H 0.0 **** 0.06
3091 C 27.797245842579798 16.68420951982418 43.72764341779426 C 0.0 **** -0.24
3092 H 27.45963250520748 16.491322072341262 44.745954094736085 H 0.0 **** 0.06
3093 H 26.961479766624393 16.55500697294596 43.03825827891365 H 0.0 **** 0.06
3094 H 28.59296143585067 15.985081319360319 43.47001688276319 H 0.0 **** 0.06
3095 H 28.17247139883824 17.705266085864338 43.6565149846473 H 0.0 **** 0.06
3096 C 74.27857310876468 23.823286883448702 27.420971469237344 C 0.0 **** -0.24
3097 H 73.52907199493995 23.684046289986725 26.641578031162467 H 0.0 **** 0.06
3098 H 74.76084378963978 24.792368462778654 27.291600421871514 H 0.0 **** 0.06
3099 H 75.02646035918187 23.032357999184285 27.351191651617917 H 0.0 **** 0.06
3100 H 73.79750618646707 23.78345770742581 28.397518003846102 H 0.0 **** 0.06
3101 C 15.407289765043373 62.35212151955494 45.03327879856107 C 0.0 **** -0.24
3102 H 16.398220004437746 62.65481897224785 45.371164070107966 H 0.0 **** 0.06
3103 H 15.308198227170806 62.56246287430733 43.967958941814715 H 0.0 **** 0.06
3104 H 14.64931946663927 62.90674346730998 45.58537156166783 H 0.0 **** 0.06
3105 H 15.275079930698183 61.28425469045422 45.206829801993365 H 0.0 **** 0.06
3106 C 3.7814128924958084 28.622260098439142 99.69603432014483 C 0.0 **** -0.24
3107 H 4.516089183834808 28.758366767481675 100.48945077344752 H 0.0 **** 0.06
3108 H 4.294976364297298 28.531173080328415 98.73780323864261 H 0.0 **** 0.06
3109 H 3.112071582513579 29.481961112198235 99.67035702942647 H 0.0 **** 0.06
3110 H 3.2042256051713878 27.71748885195268 99.88626255910248 H 0.0 **** 0.06
3111 C 59.57147943468616 72.10308660231226 42.45548423550265 C 0.0 **** -0.24
3112 H 60.36856725181503 71.36096166674088 42.46981785541986 H 0.0 **** 0.06
3113 H 59.92574137880336 73.02501847934968 42.918787776243114 H 0.0 **** 0.06
3114 H 58.71173504700804 71.72508930352899 43.00862579944232 H 0.0 **** 0.06
3115 H 59.28019537694538 72.3036828608366 41.42437574762645 H 0.0 **** 0.06
3116 C 19.76074166696888 106.9377294281424 74.01410269020383 C 0.0 **** -0.24
3117 H 19.54876143261422 106.18347299183563 74.77278025733509 H 0.0 **** 0.06
3118 H 20.31404985789479 107.76106444723399 74.4647659801405 H 0.0 **** 0.06
3119 H 18.8227095557012 107.31128126608485 73.60226194022681 H 0.0 **** 0.06
3120 H 20.355776476329755 106.49206386464715 73.21655909603135 H 0.0 **** 0.06
3121 C 24.84651171564377 27.2825333863222 7.032291776704099 C 0.0 **** -0.24
3122 H 24.573908245511717 27.773790701722078 6.098199400319004 H 0.0 **** 0.06
3123 H 24.024645072766816 27.37194460360422 7.743121473407115 H 0.0 **** 0.06
3124 H 25.73731199760458 27.757186153194766 7.444799503838283 H 0.0 **** 0.06
3125 H 25.05167258649 26.22915546677325 6.843067290721905 H 0.0 **** 0.06
3126 C 41.68137747399942 17.083722648112506 42.369244553934095 C 0.0 **** -0.24
3127 H 41.0255212167159 17.450662549388685 43.15875493693551 H 0.0 **** 0.06
3128 H 42.40144965627081 16.382520128903096 42.791670968170024 H 0.0 **** 0.06
3129 H 42.21230086885447 17.9227900700646 41.918955526013974 H 0.0 **** 0.06
3130 H 41.08666207747467 16.579467419987207 41.60831672448063 H 0.0 **** 0.06
3131 C 38.475664975616795 7.014669264364187 23.72689351935786 C 0.0 **** -0.24
3132 H 37.867009091667754 7.319753750083365 24.578336682175767 H 0.0 **** 0.06
3133 H 38.46488197071767 5.92688928536559 23.644361521177444 H 0.0 **** 0.06
3134 H 39.49974732287773 7.358328777446175 23.870769918135046 H 0.0 **** 0.06
3135 H 38.069395128160885 7.4522471786197 22.81521467172724 H 0.0 **** 0.06
3136 C 69.71221487814935 49.22104342343969 3.0396570240341774 C 0.0 **** -0.24
3137 H 70.70718684342955 49.49107726227947 2.687625200661925 H 0.0 **** 0.06
3138 H 68.97690387876011 49.46566584304659 2.2718981556156095 H 0.0 **** 0.06
3139 H 69.48534577163056 49.77681697904712 3.949450477103859 H 0.0 **** 0.06
3140 H 69.67780270745985 48.151402852498464 3.247995336945344 H 0.0 **** 0.06
3141 C 97.59134074588266 39.017622639985404 89.38173132182476 C 0.0 **** -0.24
3142 H 98.5932442263227 38.58874239417142 89.40096974342555 H 0.0 **** 0.06
3143 H 97.5878137171531 39.90359486504289 88.74694731872154 H 0.0 **** 0.06
3144 H 97.29554853105543 39.29518345169765 90.39416453492265 H 0.0 **** 0.06
3145 H 96.89001576906503 38.28302608016543 88.98669068573406 H 0.0 **** 0.06
3146 C 2.900016052574813 33.37516274132494 88.35159860001687 C 0.0 **** -0.24
3147 H 2.2924087375267277 32.811865868312765 87.64283207171474 H 0.0 **** 0.06
3148 H 3.952441612803568 33.281388711138874 88.08322413210021 H 0.0 **** 0.06
3149 H 2.7434146098362646 32.98375208345671 89.35600069091055 H 0.0 **** 0.06
3150 H 2.6102836118815844 34.426463735539 88.32267786921665 H 0.0 **** 0.06
3151 C 3.488943717689324 44.178979257780384 55.25660283310094 C 0.0 **** -0.24
3152 H 3.384221486614038 44.067110187859825 56.33524293232495 H 0.0 **** 0.06
3153 H 3.7496407445619866 45.211616814615525 55.022167833505414 H 0.0 **** 0.06
3154 H 2.547581217687693 43.922581636881574 54.77067190717569 H 0.0 **** 0.06
3155 H 4.275707598632465 43.5149226791621 54.89841512970888 H 0.0 **** 0.06
3156 C 57.90400694738968 63.7462918728653 80.02518187036273 C 0.0 **** -0.24
3157 H 58.31248395715178 62.77630730481485 80.31137502923625 H 0.0 **** 0.06
3158 H 56.889166768505554 63.61635521335518 79.64771411193303 H 0.0 **** 0.06
3159 H 58.52765102386034 64.1868487125551 79.24689674282408 H 0.0 **** 0.06
3160 H 57.88823599137009 64.40316493900588 80.89402473940365 H 0.0 **** 0.06
3161 C 104.30874062859482 31.2806675666522 7.608428884639796 C 0.0 **** -0.24
3162 H 104.62845273150964 31.07552992347759 6.586486754959633 H 0.0 **** 0.06
3163 H 103.55332479901804 30.55368072250033 7.905150919795119 H 0.0 **** 0.06
3164 H 103.88673136304072 32.284879675516564 7.661891584978044 H 0.0 **** 0.06
3165 H 105.16601178631745 31.210537581687447 8.277956264526495 H 0.0 **** 0.06
3166 C 14.97822326494628 90.10508764675888 70.61642357588823 C 0.0 **** -0.24
3167 H 16.052665942014784 90.27698843600422 70.68096054141358 H 0.0 **** 0.06
3168 H 14.71347331259122 89.83648680155335 69.59334045978315 H 0.0 **** 0.06
3169 H 14.44808537920099 91.0139815988698 70.90215528631609 H 0.0 **** 0.06
3170 H 14.698379296574046 89.29510181740994 71.28944083476668 H 0.0 **** 0.06
3171 C 113.85132326280436 87.34738112291456 115.53253203016114 C 0.0 **** -0.24
3172 H 113.5418821504791 86.56254451494834 114.84195495838912 H 0.0 **** 0.06
3173 H 114.8581163072081 87.67847631186586 115.27943390461621 H 0.0 **** 0.06
3174 H 113.84067273774878 86.95820201075318 116.55108109784359 H 0.0 **** 0.06
3175 H 113.16240016467366 88.18855123760602 115.45763376407685 H 0.0 **** 0.06
3176 C 79.38752357745363 73.7977326920936 41.20094700335869 C 0.0 **** -0.24
3177 H 78.93150411181193 73.06433848281591 40.536395945808124 H 0.0 **** 0.06
3178 H 78.75468972882044 73.93814421166192 42.07667289180472 H 0.0 **** 0.06
3179 H 79.49723684177638 74.74624619618055 40.67450029048011 H 0.0 **** 0.06
3180 H 80.36961029323845 73.44110971975584 41.514451088376944 H 0.0 **** 0.06
3181 C 5.9545987076846245 82.04435176561066 35.18235837636584 C 0.0 **** -0.24
3182 H 6.804168104061262 81.54143514261415 34.7205903979293 H 0.0 **** 0.06
3183 H 5.70610940451985 82.93808514458266 34.608868399169324 H 0.0 **** 0.06
3184 H 6.210895347761323 82.32720702835758 36.20298164437483 H 0.0 **** 0.06
3185 H 5.098045119656035 81.37013764162856 35.19682391370691 H 0.0 **** 0.06
3186 C 80.96126294780558 110.96352473835339 101.00648022270695 C 0.0 **** -0.24
3187 H 79.8935856130635 110.79212258272315 101.14722621532815 H 0.0 **** 0.06
3188 H 81.11051464605691 111.68406936085171 100.2025111145685 H 0.0 **** 0.06
3189 H 81.44749913423811 110.02317872667885 100.74707762695456 H 0.0 **** 0.06
3190 H 81.39082429392585 111.35206671338983 101.92920557708123 H 0.0 **** 0.06
3191 C 64.85920827873383 59.593184742912115 14.328263171507928 C 0.0 **** -0.24
3192 H 65.03983871768406 58.73203020966156 14.971955260841838 H 0.0 **** 0.06
3193 H 64.41140510771595 59.2587057063696 13.392480045500008 H 0.0 **** 0.06
3194 H 65.80463251791778 60.09527198955979 14.12023568930067 H 0.0 **** 0.06
3195 H 64.1828426526204 60.285612152809705 14.828819613028202 H 0.0 **** 0.06
3196 C 60.397581944380505 5.772511353900347 38.19142421284785 C 0.0 **** -0.24
3197 H 60.1649699292021 5.404184512079166 37.192176514361876 H 0.0 **** 0.06
3198 H 59.90185848219417 5.147106669156363 38.93439274479067 H 0.0 **** 0.06
3199 H 60.047983799879916 6.800435754797501 38.29045229316816 H 0.0 **** 0.06
3200 H 61.47504013651877 5.739032027418483 38.34979999109066 H 0.0 **** 0.06
3201 C 113.63432042543565 45.77451662063618 40.04453606154589 C 0.0 **** -0.24
3202 H 113.2794161858623 46.703533116011045 40.49089724587814 H 0.0 **** 0.06
3203 H 114.56143283938569 45.96239075847717 39.502414412898815 H 0.0 **** 0.06
3204 H 112.88077791441873 45.39126144329077 39.355804492571124 H 0.0 **** 0.06
3205 H 113.81466597238744 45.04010764934759 40.8296793128861 H 0.0 **** 0.06
3206 C 59.87327895634641 81.75185178298818 79.13789359860903 C 0.0 **** -0.24
3207 H 59.200882661064895 82.57279823929497 78.88753157894672 H 0.0 **** 0.06
3208 H 60.146425574806216 81.81645507293302 80.19194312483677 H 0.0 **** 0.06
3209 H 60.77128598033781 81.81769095582666 78.52470889986816 H 0.0 **** 0.06
3210 H 59.37190551910257 80.80247052826257 78.94884890983835 H 0.0 **** 0.06
3211 C 63.56399352276085 24.887235703033973 106.22006225711104 C 0.0 **** -0.24
3212 H 63.251191919926754 25.452831972683313 107.0982046301439 H 0.0 **** 0.06
3213 H 63.61926478881858 25.554037891194035 105.35927487035417 H 0.0 **** 0.06
3214 H 62.839523902405034 24.09683988079953 106.02195061968874 H 0.0 **** 0.06
3215 H 64.54375512005373 24.44581454908164 106.40162635649187 H 0.0 **** 0.06
3216 C 11.849426742628253 14.596656793949762 108.01490353935463 C 0.0 **** -0.24
3217 H 12.088866817496665 15.39777212267984 107.31473804587827 H 0.0 **** 0.06
3218 H 12.708268241090366 13.932571667602076 108.1139247964824 H 0.0 **** 0.06
3219 H 10.994341506279156 14.032913634602494 107.64387420191102 H 0.0 **** 0.06
3220 H 11.607962223346277 15.025726977506565 108.9877440559484 H 0.0 **** 0.06
3221 C 50.50642515165697 94.47753481457735 2.0166913539115985 C 0.0 **** -0.24
3222 H 49.6512228888123 94.31589499134171 1.3600905218536425 H 0.0 **** 0.06
3223 H 50.41511335050615 93.84093926949433 2.8964363168108544 H 0.0 **** 0.06
3224 H 50.53512471654017 95.5233032932966 2.3244829268217497 H 0.0 **** 0.06
3225 H 51.424329208763254 94.23054202340839 1.4826410691300236 H 0.0 **** 0.06
3226 C 86.31971196003488 69.56187965044418 102.71163560913783 C 0.0 **** -0.24
3227 H 85.78224332181176 70.3624297077811 102.2033502226069 H 0.0 **** 0.06
3228 H 85.60555824872822 68.89506279900829 103.19550932064209 H 0.0 **** 0.06
3229 H 86.98428904856553 69.99015484150209 103.46160866656265 H 0.0 **** 0.06
3230 H 86.90666934695065 68.9998059888211 101.98407716618294 H 0.0 **** 0.06
3231 C 98.52916248151001 103.80138068144154 69.58688601653691 C 0.0 **** -0.24
3232 H 97.75518586249984 104.56536741017501 69.66378508924143 H 0.0 **** 0.06
3233 H 98.29780999810589 102.98156788518043 70.2669690808612 H 0.0 **** 0.06
3234 H 99.4941899946038 104.2335384366985 69.85257111070916 H 0.0 **** 0.06
3235 H 98.5681672478442 103.42617963169772 68.56401858034747 H 0.0 **** 0.06
3236 C 75.90119576264678 78.71993122021286 74.33676775660223 C 0.0 **** -0.24
3237 H 76.95210279820066 78.72393931353048 74.04848097245912 H 0.0 **** 0.06
3238 H 75.28253166396061 78.57663113940478 73.45112236552907 H 0.0 **** 0.06
3239 H 75.64986719536645 79.67225318744644 74.80552663582847 H 0.0 **** 0.06
3240 H 75.72100764832129 77.9086518093425 75.04258003155505 H 0.0 **** 0.06
3241 C 50.80449203878172 101.44929607414244 75.38122889403212 C 0.0 **** -0.24
3242 H 50.9434596436046 101.58379286142392 76.45425388155849 H 0.0 **** 0.06
3243 H 49.77379581120991 101.15303725547199 75.18371934281853 H 0.0 **** 0.06
3244 H 51.48048549763436 100.67456848897228 75.0215347357302 H 0.0 **** 0.06
3245 H 51.01808563352475 102.386214947654 74.86651656522213 H 0.0 **** 0.06
3246 C 56.76858445643418 12.99483231222473 37.11506008498708 C 0.0 **** -0.24
3247 H 55.894182734611036 12.415119674545622 37.411537533525646 H 0.0 **** 0.06
3248 H 56.46328548792064 13.796073287176398 36.4435876081336 H 0.0 **** 0.06
3249 H 57.47873310142759 12.343007203102275 36.605139543662816 H 0.0 **** 0.06
3250 H 57.23835316661098 13.421113771389912 38.00165833800152 H 0.0 **** 0.06
3251 C 92.6316203825663 59.13457074928947 4.400347718620424 C 0.0 **** -0.24
3252 H 91.65656313373006 58.95892101859419 3.94565055280259 H 0.0 **** 0.06
3253 H 93.12987849797483 58.179571409626426 4.569770646257524 H 0.0 **** 0.06
3254 H 92.50018372946104 59.65010057646803 5.352054821078127 H 0.0 **** 0.06
3255 H 93.23786341696635 59.74845920118802 3.7346320991127016 H 0.0 **** 0.06
3256 C 18.89966795875459 47.6020403816629 100.72282836662055 C 0.0 **** -0.24
3257 H 18.32875352509872 47.00875832471726 100.00912252440432 H 0.0 **** 0.06
3258 H 18.72386904533002 47.22469135666783 101.73021181973391 H 0.0 **** 0.06
3259 H 18.5825241168572 48.64399015138588 100.66442874309419 H 0.0 **** 0.06
3260 H 19.961447242868132 47.53200811834134 100.48738373057265 H 0.0 **** 0.06
3261 C 51.7584808368203 19.68886078579675 42.03480733015729 C 0.0 **** -0.24
3262 H 51.245799082083096 20.451624090298424 41.44892721141902 H 0.0 **** 0.06
3263 H 52.80997492596529 19.958261650692123 42.14108715694697 H 0.0 **** 0.06
3264 H 51.67948108869027 18.727499717556015 41.527131344239066 H 0.0 **** 0.06
3265 H 51.29924516646284 19.617550603505407 43.020531122632164 H 0.0 **** 0.06
3266 C 2.467609628937396 92.40210040839293 13.835793864420037 C 0.0 **** -0.24
3267 H 2.2821554748491053 93.0712237233308 12.995634531490904 H 0.0 **** 0.06
3268 H 3.3298354266087813 91.77265177021931 13.614298750177657 H 0.0 **** 0.06
3269 H 1.5913361617596706 91.77375175834368 13.998965000369775 H 0.0 **** 0.06
3270 H 2.666026121833056 92.9893737850642 14.731856244241023 H 0.0 **** 0.06
3271 C 115.38422348887907 65.39164162383292 22.065761302873682 C 0.0 **** -0.24
3272 H 115.03274445475816 66.28169830119765 21.544022329751726 H 0.0 **** 0.06
3273 H 115.62649711308211 64.61610137474298 21.339350425594432 H 0.0 **** 0.06
3274 H 114.60341144196603 65.0316627602962 22.73620277512623 H 0.0 **** 0.06
3275 H 116.27460044923671 65.63858908181743 22.644760299838026 H 0.0 **** 0.06
3276 C 61.44891673981039 85.99797503431716 33.086419463380736 C 0.0 **** -0.24
3277 H 61.83728162411254 85.39092455208825 33.904292560343464 H 0.0 **** 0.06
3278 H 62.06799590727967 86.88679188437067 32.967123524836694 H 0.0 **** 0.06
3279 H 60.42352821884261 86.29504787708339 33.310339475404845 H 0.0 **** 0.06
3280 H 61.465238323056376 85.41684137649551 32.164242007647374 H 0.0 **** 0.06
3281 C 100.30612195646648 78.9643751087552 11.783505793755069 C 0.0 **** -0.24
3282 H 99.98107515538322 79.99830556879681 11.89790564517864 H 0.0 **** 0.06
3283 H 101.39482395945868 78.92407683183342 11.778319816301064 H 0.0 **** 0.06
3284 H 99.92178156919502 78.5640824023954 10.84501859805826 H 0.0 **** 0.06
3285 H 99.92349538965223 78.37011797565927 12.614259323936949 H 0.0 **** 0.06
3286 C 91.70580660398502 10.966977804748922 68.65667722263868 C 0.0 **** -0.24
3287 H 91.38018430120832 10.971391692259498 69.69666211227945 H 0.0 **** 0.06
3288 H 91.36845990313958 10.04938406352612 68.17440249771442 H 0.0 **** 0.06
3289 H 92.79384205112234 11.019685629016237 68.61739976598187 H 0.0 **** 0.06
3290 H 91.28209210078006 11.827014748894314 68.13923604487553 H 0.0 **** 0.06
3291 C 50.04377513655862 107.5186258457407 39.63227631318691 C 0.0 **** -0.24
3292 H 49.479507060988794 106.7893675592569 40.21554468210248 H 0.0 **** 0.06
3293 H 49.427843536032185 108.40305332176945 39.46565596455254 H 0.0 **** 0.06
3294 H 50.31928068703337 107.08076287254772 38.672978309059076 H 0.0 **** 0.06
3295 H 50.945014349224664 107.80019309083855 40.17581809301056 H 0.0 **** 0.06
3296 C 57.55907868525685 99.23126443319083 36.555634767628305 C 0.0 **** -0.24
3297 H 56.98569805925678 99.76052366345172 35.79541228987674 H 0.0 **** 0.06
3298 H 56.98684377097487 99.19525571860893 37.48233510052205 H 0.0 **** 0.06
3299 H 58.50061429328582 99.75229733326432 36.72980248144373 H 0.0 **** 0.06
3300 H 57.763944567154 98.21636290727525 36.21497243463105 H 0.0 **** 0.06
3301 C 41.16385277355428 4.769406349747783 45.59516233760644 C 0.0 **** -0.24
3302 H 40.35080697122535 4.490002631548762 46.26459194639807 H 0.0 **** 0.06
3303 H 41.37712208692335 3.942586920598785 44.91802367421377 H 0.0 **** 0.06
3304 H 42.05403372592632 4.9993465758093265 46.181253943178035 H 0.0 **** 0.06
3305 H 40.872632992047556 5.647450700427953 45.01789015285715 H 0.0 **** 0.06
3306 C 33.94769611507486 71.6580189942614 57.19866387132251 C 0.0 **** -0.24
3307 H 34.327601053168095 71.85829245434147 56.19638556839615 H 0.0 **** 0.06
3308 H 34.09975340559705 70.60669399405842 57.441143225801284 H 0.0 **** 0.06
3309 H 32.883916660095394 71.89070718474116 57.23645791849694 H 0.0 **** 0.06
3310 H 34.48032274311721 72.27818533366505 57.91962264301628 H 0.0 **** 0.06
3311 C 15.09088393206045 53.118372075318 0.43500505571181236 C 0.0 **** -0.24
3312 H 15.938977153203382 53.72061939323183 0.7617328585496352 H 0.0 **** 0.06
3313 H 15.418516945557599 52.09243898874693 0.2641690770385594 H 0.0 **** 0.06
3314 H 14.689223707721823 53.53115053415682 -0.49091342229550605 H 0.0 **** 0.06
3315 H 14.319234581667644 53.13146388267548 1.2038533963591647 H 0.0 **** 0.06
3316 C 106.71596260658134 47.72289397175719 108.80429732825324 C 0.0 **** -0.24
3317 H 107.06915815232583 47.724820303591756 109.83503352473552 H 0.0 **** 0.06
3318 H 105.62731526285165 47.76581169005274 108.79334568924145 H 0.0 **** 0.06
3319 H 107.04958784307692 46.81187726531454 108.30766394658082 H 0.0 **** 0.06
3320 H 107.11912572396525 48.590852672224 108.28130092606241 H 0.0 **** 0.06
3321 C 67.25512982496065 78.75709673798735 103.20059454143629 C 0.0 **** -0.24
3322 H 67.61744266001318 77.77256036543113 103.49579359975402 H 0.0 **** 0.06
3323 H 66.97692154972819 78.74201755186152 102.14666629159257 H 0.0 **** 0.06
3324 H 68.04089921544562 79.49573814340263 103.3587251844178 H 0.0 **** 0.06
3325 H 66.3840334052602 79.0191301852663 103.80273703137343 H 0.0 **** 0.06
3326 C 65.68639851669445 31.64785544262986 28.08803256451995 C 0.0 **** -0.24
3327 H 66.23812564104298 32.1965714384869 28.851649569619212 H 0.0 **** 0.06
3328 H 65.3590535799774 32.3382097026747 27.309563329791217 H 0.0 **** 0.06
3329 H 64.81589487873055 31.171813855199787 28.540051174802883 H 0.0 **** 0.06
3330 H 66.33207822414693 30.885722051896906 27.65080788251565 H 0.0 **** 0.06
3331 C 38.77847562800786 45.954025267380715 104.39372706026705 C 0.0 **** -0.24
3332 H 39.31080488903093 45.01448653057227 104.24737320222943 H 0.0 **** 0.06
3333 H 38.09720195798803 45.85840812703319 105.23904208953027 H 0.0 **** 0.06
3334 H 38.21070258711022 46.19354421521194 103.49441652673627 H 0.0 **** 0.06
3335 H 39.496072600124364 46.75065925701952 104.59359431522927 H 0.0 **** 0.06
3336 C 68.67637094192855 98.70592907937439 6.365062226627458 C 0.0 **** -0.24
3337 H 68.51699852588888 99.61783506425223 6.9406096879647805 H 0.0 **** 0.06
3338 H 68.20650591156266 97.86704993441742 6.877470791939174 H 0.0 **** 0.06
3339 H 69.74649782461825 98.52110594037316 6.268834081747173 H 0.0 **** 0.06
3340 H 68.23620893895452 98.8203814899839 5.374524485511586 H 0.0 **** 0.06
3341 C 46.85117184819774 8.808505326550573 109.66077906256719 C 0.0 **** -0.24
3342 H 47.64575433579532 8.232917148055265 110.13631972861006 H 0.0 **** 0.06
3343 H 46.737172805280665 8.483365478893461 108.62618623419898 H 0.0 **** 0.06
3344 H 47.108164878926345 9.86800029734539 109.68268818361386 H 0.0 **** 0.06
3345 H 45.91664692738294 8.650015841912278 110.19714004821874 H 0.0 **** 0.06
3346 C 10.047043654395821 14.025453841569515 0.010141303022976444 C 0.0 **** -0.24
3347 H 10.7732312087048 13.350118844287067 -0.44169961223786913 H 0.0 **** 0.06
3348 H 9.595156808685914 14.644360723606724 -0.7653221349760884 H 0.0 **** 0.06
3349 H 10.549087566804047 14.662827824668625 0.7380700667816882 H 0.0 **** 0.06
3350 H 9.272286380788984 13.444026896022365 0.5090178267647048 H 0.0 **** 0.06
3351 C 82.84248609605217 93.16802819587232 8.242454172110236 C 0.0 **** -0.24
3352 H 83.64083533346934 93.19932202195383 8.98403233190557 H 0.0 **** 0.06
3353 H 82.12863196061258 92.38921236209907 8.511387540835774 H 0.0 **** 0.06
3354 H 83.26559854782514 92.95138437794353 7.261872589808286 H 0.0 **** 0.06
3355 H 82.33488885419115 94.13185623219846 8.213897509604518 H 0.0 **** 0.06
3356 C 39.22004624525886 15.047743362642677 51.19613951603037 C 0.0 **** -0.24
3357 H 39.430171128710754 14.630244690848087 52.180471429047486 H 0.0 **** 0.06
3358 H 38.34026540266535 14.561100805929982 50.775249210370816 H 0.0 **** 0.06
3359 H 40.07538037127071 14.883233908035976 50.54150520173113 H 0.0 **** 0.06
3360 H 39.03383355708459 16.11803329923822 51.28749747777323 H 0.0 **** 0.06
3361 C 16.30000392198687 16.377719390015898 100.41016935607476 C 0.0 **** -0.24
3362 H 15.866776196745008 17.27526068174859 100.85192421012215 H 0.0 **** 0.06
3363 H 16.32613673448995 15.582956871667193 101.1553489001976 H 0.0 **** 0.06
3364 H 17.31272352999804 16.59270424887177 100.07127204391472 H 0.0 **** 0.06
3365 H 15.69219647324141 16.062449891784468 99.56200768525724 H 0.0 **** 0.06
3366 C 32.62106325862817 102.90503855011343 108.69767429568026 C 0.0 **** -0.24
3367 H 32.040246301949196 103.63771320374909 108.1375328230356 H 0.0 **** 0.06
3368 H 33.65217514252032 102.91077607608273 108.3424273312487 H 0.0 **** 0.06
3369 H 32.1919315773967 101.91426665625966 108.55294026315102 H 0.0 **** 0.06
3370 H 32.60018332366013 103.15907347319137 109.75813378812961 H 0.0 **** 0.06
3371 C 8.093579558315668 41.94869273145423 20.96610770484753 C 0.0 **** -0.24
3372 H 8.67517494298491 41.570886783131584 21.806810042167626 H 0.0 **** 0.06
3373 H 7.265357903848951 41.26941919558675 20.763163511052255 H 0.0 **** 0.06
3374 H 8.730686770994737 42.01797745098344 20.084558513401504 H 0.0 **** 0.06
3375 H 7.701821489137501 42.93664195509098 21.209311209624275 H 0.0 **** 0.06
3376 C 70.00125418535438 58.38740832292777 114.57955558878857 C 0.0 **** -0.24
3377 H 70.58360728694385 57.77711581046137 113.88918403265157 H 0.0 **** 0.06
3378 H 70.67236749135097 59.01496235596852 115.1646092091259 H 0.0 **** 0.06
3379 H 69.43425823496969 57.73886803211633 115.24778764349156 H 0.0 **** 0.06
3380 H 69.31378230744369 59.01768846545397 114.0149093643721 H 0.0 **** 0.06
3381 C 46.177639944717896 60.5384996130233 82.66156231348393 C 0.0 **** -0.24
3382 H 45.989208708637904 61.12329597805698 81.76129744229539 H 0.0 **** 0.06
3383 H 47.15936051285291 60.0691946520872 82.59087569368171 H 0.0 **** 0.06
3384 H 45.412928960478695 59.766925466226745 82.76090274194323 H 0.0 **** 0.06
3385 H 46.14941370715883 61.192538105753535 83.53233830076087 H 0.0 **** 0.06
3386 C 68.16110810835409 11.915929590739722 43.72681335367918 C 0.0 **** -0.24
3387 H 68.92630808411738 12.039401484122266 44.49375448868199 H 0.0 **** 0.06
3388 H 68.4345383988842 12.494257951846976 42.844128719632664 H 0.0 **** 0.06
3389 H 67.20254408692247 12.268738773700974 44.10973732753931 H 0.0 **** 0.06
3390 H 68.08052959996158 10.862246389993402 43.461602640749874 H 0.0 **** 0.06
3391 C 106.98826487626064 2.4024143875348045 82.8285163005529 C 0.0 **** -0.24
3392 H 106.0793544978539 1.9932243149860938 83.2705246959836 H 0.0 **** 0.06
3393 H 107.57891585420629 2.893880449301136 83.60181799788893 H 0.0 **** 0.06
3394 H 106.7223795025821 3.125858382446353 82.05798161513977 H 0.0 **** 0.06
3395 H 107.57036491899925 1.5947823308947164 82.38333652132798 H 0.0 **** 0.06
3396 C 18.6303301249921 48.81891924075977 75.012708246724 C 0.0 **** -0.24
3397 H 18.13386878572743 47.87880952486425 74.77559702164058 H 0.0 **** 0.06
3398 H 18.258521249261605 49.602892449710914 74.35297941410494 H 0.0 **** 0.06
3399 H 19.706185887453785 48.70745348801026 74.87490485507072 H 0.0 **** 0.06
3400 H 18.423150936779678 49.08714379318135 76.04855491676511 H 0.0 **** 0.06
3401 C 97.61442530172027 101.56469819614657 81.6732293960211 C 0.0 **** -0.24
3402 H 98.67390328821833 101.71201748855097 81.88476056682134 H 0.0 **** 0.06
3403 H 97.4618461788188 100.56773545231951 81.26084145227534 H 0.0 **** 0.06
3404 H 97.28157502733765 102.3119479902399 80.9530721995213 H 0.0 **** 0.06
3405 H 97.04277306897524 101.66825604086443 82.59562273700789 H 0.0 **** 0.06
3406 C 20.591595600388374 64.92298384580158 42.8252623733128 C 0.0 **** -0.24
3407 H 20.48850416639894 65.811474509763 42.202826493201215 H 0.0 **** 0.06
3408 H 21.45500699412669 65.03842533149646 43.4812082933702 H 0.0 **** 0.06
3409 H 20.73021488000012 64.04844709850215 42.190332389886116 H 0.0 **** 0.06
3410 H 19.69182306506876 64.79630412267741 43.42764731762357 H 0.0 **** 0.06
3411 C 25.525799808070772 111.9313832449095 97.62594421228195 C 0.0 **** -0.24
3412 H 24.606415292338085 111.72395403737417 98.1740529944563 H 0.0 **** 0.06
3413 H 25.719065319481402 111.12129361730699 96.92158968787223 H 0.0 **** 0.06
3414 H 26.357378390553208 112.00876507642148 98.32747052569826 H 0.0 **** 0.06
3415 H 25.42113910533962 112.86971004820614 97.08170540070196 H 0.0 **** 0.06
3416 C 73.57366985850516 44.012912863613934 24.007560410676888 C 0.0 **** -0.24
3417 H 72.88639296331206 43.25595798486492 24.383619804513174 H 0.0 **** 0.06
3418 H 74.0760317632809 43.63719939923081 23.11571349444951 H 0.0 **** 0.06
3419 H 74.31555652855718 44.242652399075354 24.772540734284377 H 0.0 **** 0.06
3420 H 73.01776280062927 44.9171224172585 23.757891747703965 H 0.0 **** 0.06
3421 C 66.2950272424846 21.438842187285047 63.52005040495316 C 0.0 **** -0.24
3422 H 66.89536015180349 22.347995094548907 63.55249033661516 H 0.0 **** 0.06
3423 H 65.23710740227602 21.701686020373245 63.54979528874885 H 0.0 **** 0.06
3424 H 66.53862897926655 20.81197577742182 64.3769048677685 H 0.0 **** 0.06
3425 H 66.50852982174104 20.895145377085953 62.59908435456497 H 0.0 **** 0.06
3426 C 2.218403496934428 91.48503660840035 95.37591332950592 C 0.0 **** -0.24
3427 H 2.1800536795022367 90.40245742049748 95.4928641824796 H 0.0 **** 0.06
3428 H 1.4889065462049587 91.94874356750353 96.04072614674578 H 0.0 **** 0.06
3429 H 1.9884374826608564 91.74777880481554 94.34418999679349 H 0.0 **** 0.06
3430 H 3.217514952964592 91.84202651973158 95.62747746866097 H 0.0 **** 0.06
3431 C 64.14287104660607 106.02156042488147 89.76611146094444 C 0.0 **** -0.24
3432 H 63.69276566736753 105.87198336414187 88.78485114863258 H 0.0 **** 0.06
3433 H 64.81848522953283 106.87643115604945 89.72872822637638 H 0.0 **** 0.06
3434 H 64.70129337783081 105.12911480757239 90.04911022718551 H 0.0 **** 0.06
3435 H 63.35985710182204 106.20847535510708 90.50143586146126 H 0.0 **** 0.06
3436 C 86.41320275096453 46.81541675392617 56.81203291497542 C 0.0 **** -0.24
3437 H 86.86531547003682 47.211542402508684 57.72219148268667 H 0.0 **** 0.06
3438 H 85.7241324218246 47.55230454106092 56.39891736430309 H 0.0 **** 0.06
3439 H 85.8705169517686 45.89983937395667 57.045091045206874 H 0.0 **** 0.06
3440 H 87.19450170419145 46.59889817888828 56.0834866798036 H 0.0 **** 0.06
3441 C 100.31659595283932 22.886859723286022 59.53861619462248 C 0.0 **** -0.24
3442 H 100.92936990719565 23.121738328697774 60.40834145447053 H 0.0 **** 0.06
3443 H 100.87650282691251 23.10650780301785 58.62981316136606 H 0.0 **** 0.06
3444 H 99.40870301528753 23.490593006565206 59.56083260518625 H 0.0 **** 0.06
3445 H 100.04975903376669 21.83054050606188 59.555665793065856 H 0.0 **** 0.06
3446 C 73.38843889339574 98.59772115363847 45.190541784700144 C 0.0 **** -0.24
3447 H 74.1126189893188 99.01641117604078 45.88979485288354 H 0.0 **** 0.06
3448 H 72.8442604364312 99.40669123028721 44.70325112989639 H 0.0 **** 0.06
3449 H 72.68773094094124 97.96125359674491 45.730978999103286 H 0.0 **** 0.06
3450 H 73.91021894194424 98.00603722299411 44.43892045409183 H 0.0 **** 0.06
3451 C 28.79893684039645 79.43640646060115 15.419447579498453 C 0.0 **** -0.24
3452 H 28.730539512625597 79.06664068663522 16.442681697995706 H 0.0 **** 0.06
3453 H 28.926413129246612 80.51890467372391 15.432878410356285 H 0.0 **** 0.06
3454 H 27.883815648662136 79.18501013317712 14.882127256721187 H 0.0 **** 0.06
3455 H 29.65082119392619 78.97445694600563 14.922185516686518 H 0.0 **** 0.06
3456 C 43.75801264643127 55.78453411761819 5.18387930277018 C 0.0 **** -0.24
3457 H 42.917861663661625 55.18894927780826 4.826676287840797 H 0.0 **** 0.06
3458 H 43.55689094380773 56.12267747514778 6.200871019316665 H 0.0 **** 0.06
3459 H 43.892885919611814 56.6487427038748 4.533463524936508 H 0.0 **** 0.06
3460 H 44.66313634312979 55.17743075970699 5.175015887885394 H 0.0 **** 0.06
3461 C 113.488823368608 86.18513322518484 78.77996727679528 C 0.0 **** -0.24
3462 H 114.2882725264798 86.90256445358293 78.59323089500572 H 0.0 **** 0.06
3463 H 112.75238871698713 86.62823517700787 79.4507851824282 H 0.0 **** 0.06
3464 H 113.90526802607155 85.28877912591841 79.23873638796042 H 0.0 **** 0.06
3465 H 113.01001414180206 85.92164394984388 77.83679756768885 H 0.0 **** 0.06
3466 C 108.6642195325301 75.72229265395396 65.08846412007398 C 0.0 **** -0.24
3467 H 109.13023256540825 74.94762910946753 65.69694598308072 H 0.0 **** 0.06
3468 H 107.98272852784234 75.26012597467488 64.3735473443252 H 0.0 **** 0.06
3469 H 109.43471289922235 76.27557461550083 64.55127046503256 H 0.0 **** 0.06
3470 H 108.10897988893251 76.4052009724858 65.7313576758564 H 0.0 **** 0.06
3471 C 108.13942564050345 48.50018256627002 32.90595844695579 C 0.0 **** -0.24
3472 H 109.22121374696721 48.4997722972662 33.035824659929375 H 0.0 **** 0.06
3473 H 107.90001762066828 48.63514339698039 31.850434676518546 H 0.0 **** 0.06
3474 H 107.7037179756428 49.3142486863299 33.48515715483225 H 0.0 **** 0.06
3475 H 107.73165625419279 47.54960687821684 33.25143785207837 H 0.0 **** 0.06
3476 C 78.51258588761368 27.933011933198713 96.71434136396906 C 0.0 **** -0.24
3477 H 79.44363617519963 27.620269068518837 96.24050669816486 H 0.0 **** 0.06
3478 H 77.94992844516037 27.051704935424198 97.02350408452182 H 0.0 **** 0.06
3479 H 77.92116642720401 28.51134180198335 96.0041994234922 H 0.0 **** 0.06
3480 H 78.73716603104282 28.546506973159012 97.58605087888841 H 0.0 **** 0.06
3481 C 57.20377639243532 64.93208809456709 93.88073176485747 C 0.0 **** -0.24
3482 H 56.60395653550291 65.82774310306161 94.04145884276846 H 0.0 **** 0.06
3483 H 57.15237025599685 64.64448638420157 92.8303519941658 H 0.0 **** 0.06
3484 H 56.820223738725765 64.12126144276493 94.50020692934385 H 0.0 **** 0.06
3485 H 58.24010958751605 65.13646272170368 94.15191907140007 H 0.0 **** 0.06
3486 C 109.53788745041463 7.141708195424172 14.1727072841162 C 0.0 **** -0.24
3487 H 108.55256446170324 7.2144138612868005 14.632005010285638 H 0.0 **** 0.06
3488 H 110.18278032987112 7.924884402218822 14.570746408188597 H 0.0 **** 0.06
3489 H 109.44485541152085 7.260607344910284 13.093252332677082 H 0.0 **** 0.06
3490 H 109.97015023781555 6.166183985301359 14.394921933352862 H 0.0 **** 0.06
3491 C 26.57823538700697 105.58586841183615 10.636055463072701 C 0.0 **** -0.24
3492 H 26.367873419944743 105.40294821848181 9.58293679280887 H 0.0 **** 0.06
3493 H 27.521351201761178 105.10961865533051 10.9055767837385 H 0.0 **** 0.06
3494 H 25.77467253590126 105.1714843212888 11.24437651241978 H 0.0 **** 0.06
3495 H 26.651157421517297 106.65964469105836 10.810634626504875 H 0.0 **** 0.06
3496 C 48.47370935026322 106.51955284710766 68.16570323939885 C 0.0 **** -0.24
3497 H 48.75611151064123 105.49821852929398 67.90921107795717 H 0.0 **** 0.06
3498 H 47.51432362112922 106.51109894126702 68.68398653834794 H 0.0 **** 0.06
3499 H 48.390317541553884 107.11293252441075 67.25468875969176 H 0.0 **** 0.06
3500 H 49.233595312408056 106.95510100905997 68.81478421102813 H 0.0 **** 0.06
3501 C 109.95231426934592 43.12415006090768 110.49551051847453 C 0.0 **** -0.24
3502 H 110.55804156455102 43.93728125442394 110.89485252712575 H 0.0 **** 0.06
3503 H 109.51045693235463 43.43229435639586 109.54737170297756 H 0.0 **** 0.06
3504 H 109.15972130541891 42.88015197718963 111.20356443636229 H 0.0 **** 0.06
3505 H 110.58018409327971 42.24798138469154 110.33604624372902 H 0.0 **** 0.06
3506 C 59.131696210417296 81.1610889392449 72.82727968402824 C 0.0 **** -0.24
3507 H 58.389350980560785 81.9266439865421 72.60074929820527 H 0.0 **** 0.06
3508 H 58.888751882931864 80.69014433650167 73.77922933462304 H 0.0 **** 0.06
3509 H 60.11884046460286 81.620426209789 72.88997364275576 H 0.0 **** 0.06
3510 H 59.13016951808162 80.40930785379317 72.03872101775252 H 0.0 **** 0.06
3511 C 52.32303957577983 85.12739753916273 53.00240388165267 C 0.0 **** -0.24
3512 H 51.9568111816547 84.10766202395965 52.88036186977419 H 0.0 **** 0.06
3513 H 53.40946627604825 85.1349830795726 52.92285283575336 H 0.0 **** 0.06
3514 H 52.026317623668945 85.50392506370792 53.98145550774851 H 0.0 **** 0.06
3515 H 51.89591155695467 85.76086251354101 52.225053419817385 H 0.0 **** 0.06
3516 C 8.089747575295021 69.93349664701168 61.99526152988264 C 0.0 **** -0.24
3517 H 9.019479107204106 70.09611611930995 61.45072768506637 H 0.0 **** 0.06
3518 H 7.768185006790048 68.90075534075555 61.86400292650336 H 0.0 **** 0.06
3519 H 7.321340045733521 70.60545261522327 61.611183294134776 H 0.0 **** 0.06
3520 H 8.250485573532544 70.13247127176157 63.05482151377598 H 0.0 **** 0.06
3521 C 2.638951729493442 12.35764867991352 102.18107813497991 C 0.0 **** -0.24
3522 H 3.312234271970624 13.210137497525608 102.08659824479466 H 0.0 **** 0.06
3523 H 2.8327137734483756 11.844683474599623 103.12335779662874 H 0.0 **** 0.06
3524 H 2.805141156014173 11.669692170729554 101.35108356906363 H 0.0 **** 0.06
3525 H 1.6062146208415697 12.707055926960606 102.1619298352332 H 0.0 **** 0.06
3526 C 77.98830132468757 19.953922217687136 88.66504907640092 C 0.0 **** -0.24
3527 H 77.44815615824564 19.22628537183843 88.05825515671688 H 0.0 **** 0.06
3528 H 77.79280911150647 19.762485892034533 89.72061051446795 H 0.0 **** 0.06
3529 H 77.6540457444182 20.95973352188856 88.40997102416932 H 0.0 **** 0.06
3530 H 79.05748608607382 19.865573065304673 88.47231003260686 H 0.0 **** 0.06
3531 C 78.29369470966816 34.686753194339744 92.94088402241621 C 0.0 **** -0.24
3532 H 78.47263987823843 34.685688213815105 91.8663020668788 H 0.0 **** 0.06
3533 H 79.03507187748426 34.055655391512154 93.43275242508844 H 0.0 **** 0.06
3534 H 77.29526065133814 34.29927399061489 93.14363328634218 H 0.0 **** 0.06
3535 H 78.37359707558821 35.70480581034355 93.32136584593545 H 0.0 **** 0.06
3536 C 22.00706103774051 62.0796123658241 99.81325912274554 C 0.0 **** -0.24
3537 H 21.296909576708924 62.77232821824878 100.2655827392457 H 0.0 **** 0.06
3538 H 21.469438381254054 61.36465615817527 99.18947347391315 H 0.0 **** 0.06
3539 H 22.544586727232247 61.54755463309886 100.59768096271546 H 0.0 **** 0.06
3540 H 22.715357577425433 62.63658990979547 99.20019308008852 H 0.0 **** 0.06
3541 C 109.0116370611842 70.64625964470679 90.79618061020119 C 0.0 **** -0.24
3542 H 108.28782238600562 69.8319563449405 90.76889698261425 H 0.0 **** 0.06
3543 H 110.01799062505819 70.2354994277083 90.87278001988398 H 0.0 **** 0.06
3544 H 108.81061703295855 71.28152396959001 91.65890893405606 H 0.0 **** 0.06
3545 H 108.92779322001846 71.23640342297657 89.88344652360934 H 0.0 **** 0.06
3546 C 87.64355536157416 72.82049525398938 80.29015355069555 C 0.0 **** -0.24
3547 H 87.71960926754764 73.68184874064983 79.62645486460437 H 0.0 **** 0.06
3548 H 88.639286788106 72.53510618299998 80.63075598485 H 0.0 **** 0.06
3549 H 87.19037361851446 71.98724185822206 79.75158679859044 H 0.0 **** 0.06
3550 H 87.02487847141845 73.07763962267643 81.14882085164871 H 0.0 **** 0.06
3551 C 98.56041952523219 101.56792528354157 86.87494541408884 C 0.0 **** -0.24
3552 H 97.9415252122007 100.68571298860192 86.70968715446557 H 0.0 **** 0.06
3553 H 98.50486519452295 101.85760405036413 87.92506540219503 H 0.0 **** 0.06
3554 H 98.20041027620175 102.38573847987269 86.25227634629482 H 0.0 **** 0.06
3555 H 99.5941317618474 101.33991108131269 86.61415521591962 H 0.0 **** 0.06
3556 C 84.02970708838035 68.36498788010243 60.16776491958376 C 0.0 **** -0.24
3557 H 83.97946965690167 67.41075046803846 59.643435708082734 H 0.0 **** 0.06
3558 H 83.43697429789074 69.10620651329111 59.629999312469124 H 0.0 **** 0.06
3559 H 85.06597495948378 68.69662328745872 60.220069146582034 H 0.0 **** 0.06
3560 H 83.63438371738846 68.24572350518625 61.176864739340715 H 0.0 **** 0.06
3561 C 35.08878397335175 21.71786343940221 90.6302567866556 C 0.0 **** -0.24
3562 H 35.77676930663421 20.941847746935423 90.29340987331256 H 0.0 **** 0.06
3563 H 35.06483472526378 22.52516246058201 89.89813063531878 H 0.0 **** 0.06
3564 H 35.42444364075203 22.107468521578653 91.59102023279263 H 0.0 **** 0.06
3565 H 34.08973340874584 21.296231294866857 90.73864147882136 H 0.0 **** 0.06
3566 C 11.173285882724993 51.65229290147033 106.80322364735397 C 0.0 **** -0.24
3567 H 10.515651687095641 52.51797727245409 106.8876384149795 H 0.0 **** 0.06
3568 H 11.694563702996955 51.684839121845414 105.84532737235116 H 0.0 **** 0.06
3569 H 10.581035222863488 50.739204572523846 106.86451665802176 H 0.0 **** 0.06
3570 H 11.900864271918127 51.66910230022617 107.61434759987071 H 0.0 **** 0.06
3571 C 31.031261760871466 49.07634146274975 95.09473808210899 C 0.0 **** -0.24
3572 H 31.699806250600453 49.86985277387427 94.7611844640075 H 0.0 **** 0.06
3573 H 30.256494645789097 48.91416504281247 94.34525712692192 H 0.0 **** 0.06
3574 H 30.56929495614768 49.3637575305322 96.03967018968498 H 0.0 **** 0.06
3575 H 31.600767010569832 48.15656509365519 95.23394389953378 H 0.0 **** 0.06
3576 C 107.61562670111101 54.383337701199935 59.37736794084654 C 0.0 **** -0.24
3577 H 107.2235033012318 55.07286283303654 58.63033832420268 H 0.0 **** 0.06
3578 H 107.02816036802145 53.465123622355975 59.368192392663275 H 0.0 **** 0.06
3579 H 107.55645604896236 54.84355324170454 60.363621178730966 H 0.0 **** 0.06
3580 H 108.65624993040225 54.15251197958855 59.14712283382596 H 0.0 **** 0.06
3581 C 0.09036371997822812 25.28445654015446 5.680835911466147 C 0.0 **** -0.24
3582 H -0.5914228416185665 24.486332844608654 5.9761047202731135 H 0.0 **** 0.06
3583 H -0.22469853855383803 25.69369129606978 4.720046259799673 H 0.0 **** 0.06
3584 H 1.100288299387131 24.88532777097251 5.593494833923401 H 0.0 **** 0.06
3585 H 0.07356470499587431 26.072513659057407 6.434067462114967 H 0.0 **** 0.06
3586 C 100.17196063196113 57.51397005377794 112.51917123045085 C 0.0 **** -0.24
3587 H 99.89512832956308 57.86289596230313 113.51379705288086 H 0.0 **** 0.06
3588 H 100.73241195491636 56.58256835343991 112.6039249492661 H 0.0 **** 0.06
3589 H 100.78932334672783 58.267481079703316 112.02927693114711 H 0.0 **** 0.06
3590 H 99.27036494733952 57.34442396393149 111.9303229263133 H 0.0 **** 0.06
3591 C 93.72739200044632 116.71338185099864 65.30480387941702 C 0.0 **** -0.24
3592 H 93.80873043406348 115.99202340546898 66.11878244222555 H 0.0 **** 0.06
3593 H 92.6815065879168 116.82120982702205 65.01876235888153 H 0.0 **** 0.06
3594 H 94.30450024554327 116.36079371490106 64.44949826593393 H 0.0 **** 0.06
3595 H 94.11621069306179 117.67717600171605 65.6334736599265 H 0.0 **** 0.06
3596 C 33.31406500041214 0.4827739357332206 84.32147088428701 C 0.0 **** -0.24
3597 H 32.2786025972141 0.8235284872657758 84.305884422623 H 0.0 **** 0.06
3598 H 33.97877116946762 1.3432715170376923 84.39744840972062 H 0.0 **** 0.06
3599 H 33.53006653660782 -0.06502421845530648 83.4040595805705 H 0.0 **** 0.06
3600 H 33.468066628042834 -0.17233772342606812 85.17931889994207 H 0.0 **** 0.06
3601 C 6.287795874129756 40.3150405868858 112.91909799109311 C 0.0 **** -0.24
3602 H 5.617370362293116 40.70614372092871 112.15401896376466 H 0.0 **** 0.06
3603 H 7.173316070724866 39.89088910594893 112.44500674548664 H 0.0 **** 0.06
3604 H 5.774890633910616 39.54099076252851 113.49045521947005 H 0.0 **** 0.06
3605 H 6.585309220326337 41.12269557790427 113.58852404295101 H 0.0 **** 0.06
3606 C 75.89862016605673 32.30093882783879 31.63938129158594 C 0.0 **** -0.24
3607 H 75.3927026949342 32.91354341029649 32.38601717207975 H 0.0 **** 0.06
3608 H 76.64839112997493 32.90261543926474 31.12339402780369 H 0.0 **** 0.06
3609 H 75.16916953490585 31.9332438156273 30.91738395946726 H 0.0 **** 0.06
3610 H 76.38354155657873 31.45747083983023 32.12905042734631 H 0.0 **** 0.06
3611 C 7.034553852081558 88.94740541552238 49.52671405586517 C 0.0 **** -0.24
3612 H 7.5071230914460045 89.70545008886393 50.150144458061334 H 0.0 **** 0.06
3613 H 6.052132893566011 88.7050699714195 49.931035109691095 H 0.0 **** 0.06
3614 H 7.653791475695186 88.05030586659086 49.51366997264398 H 0.0 **** 0.06
3615 H 6.926228600735556 89.32821192248252 48.5112757290579 H 0.0 **** 0.06
3616 C 6.571875186550358 67.91212128917195 94.85902093836188 C 0.0 **** -0.24
3617 H 7.239618328761452 67.70287515554418 94.02286356157788 H 0.0 **** 0.06
3618 H 6.26829308043412 68.95832250542708 94.82810396486343 H 0.0 **** 0.06
3619 H 7.0913257508186405 67.71161975557615 95.7961491150304 H 0.0 **** 0.06
3620 H 5.690997052756728 67.2748030962635 94.78808332810524 H 0.0 **** 0.06
3621 C 87.50450718395285 0.8492992425495203 69.06047175767185 C 0.0 **** -0.24
3622 H 86.83315977665717 0.28290752100558336 68.4135937556726 H 0.0 **** 0.06
3623 H 87.10609191789104 0.8584624317779088 70.07527977351606 H 0.0 **** 0.06
3624 H 87.58797745774783 1.8715979930367297 68.69241617761327 H 0.0 **** 0.06
3625 H 88.48926745529116 0.3815279555130644 69.05999950234815 H 0.0 **** 0.06
3626 C 88.75853068729737 85.3968112910878 84.19903496536298 C 0.0 **** -0.24
3627 H 88.90937477791283 84.54304485380533 84.85998119650858 H 0.0 **** 0.06
3628 H 89.03342388841412 86.31376173868037 84.72101160449333 H 0.0 **** 0.06
3629 H 87.70946922624489 85.44691569980145 83.9044137417304 H 0.0 **** 0.06
3630 H 89.38040970061581 85.2827261979617 83.31125963483595 H 0.0 **** 0.06
3631 C 0.07646520219330455 59.75033879595376 23.753005196860727 C 0.0 **** -0.24
3632 H 0.617697146944522 58.87969550270437 23.38145539490489 H 0.0 **** 0.06
3633 H -0.1664486372084184 59.60461175954723 24.8056083839208 H 0.0 **** 0.06
3634 H -0.8444549739361662 59.876171521384286 23.181663573422384 H 0.0 **** 0.06
3635 H 0.6976014461437785 60.63920407711684 23.641545535975695 H 0.0 **** 0.06
3636 C 103.03377314396312 62.48086954882757 59.64621715083086 C 0.0 **** -0.24
3637 H 102.93219605391599 63.283966909613525 58.91677171293865 H 0.0 **** 0.06
3638 H 102.05745815123103 62.03294725202855 59.83108632197035 H 0.0 **** 0.06
3639 H 103.43143422463046 62.88400406049806 60.577164061199746 H 0.0 **** 0.06
3640 H 103.71417927258557 61.72294309127713 59.257891313254795 H 0.0 **** 0.06
3641 C 46.79908780473096 11.965507829882824 77.58522234165437 C 0.0 **** -0.24
3642 H 47.336282676151036 12.570850245992347 76.85523180532431 H 0.0 **** 0.06
3643 H 47.32689836559547 11.022632233458523 77.73298791280868 H 0.0 **** 0.06
3644 H 45.7914747015619 11.76567674234883 77.22045481857691 H 0.0 **** 0.06
3645 H 46.74301532606122 12.502682203821365 78.53174360681399 H 0.0 **** 0.06
3646 C 20.10357997983735 2.8954164957892203 80.34115237172483 C 0.0 **** -0.24
3647 H 19.58770875461073 2.6646208163809177 79.40902780550246 H 0.0 **** 0.06
3648 H 21.141278676157185 3.1518863652171376 80.12667016786875 H 0.0 **** 0.06
3649 H 20.07121172971668 2.0263791364502026 80.99811912640757 H 0.0 **** 0.06
3650 H 19.613413314812533 3.73774788415642 80.828686372097 H 0.0 **** 0.06
3651 C 83.35549494092771 87.57459419611848 37.620813799004765 C 0.0 **** -0.24
3652 H 83.30248669319636 88.20059947502102 38.51052126523925 H 0.0 **** 0.06
3653 H 82.9933489474931 88.13610058071805 36.75823396910124 H 0.0 **** 0.06
3654 H 82.73741164556415 86.68766965617283 37.7629683285262 H 0.0 **** 0.06
3655 H 84.38996674509872 87.27338393001344 37.449774201218275 H 0.0 **** 0.06
3656 C 1.7457075326222196 83.64016037654852 82.10046812489739 C 0.0 **** -0.24
3657 H 0.9162335710484513 82.97884997933312 82.34873493015297 H 0.0 **** 0.06
3658 H 2.521521741617377 83.07221003941646 81.58752108860841 H 0.0 **** 0.06
3659 H 2.154428438207731 84.06994668286183 83.01534076944694 H 0.0 **** 0.06
3660 H 1.3897361496322134 84.4399951188295 81.45007147360056 H 0.0 **** 0.06
3661 C 29.81570143430565 91.61098257280173 5.598310868151543 C 0.0 **** -0.24
3662 H 30.276531280251078 91.34180439227106 4.648587829794749 H 0.0 **** 0.06
3663 H 30.416277975743753 92.37595334457839 6.09004807117131 H 0.0 **** 0.06
3664 H 29.757507782058326 90.72874747869429 6.236525375534015 H 0.0 **** 0.06
3665 H 28.811099221795757 91.99568304700927 5.418269222967652 H 0.0 **** 0.06
3666 C 60.168136574368155 105.12358080878039 10.895761545329208 C 0.0 **** -0.24
3667 H 59.16184429964739 104.98304909558004 11.291277286526821 H 0.0 **** 0.06
3668 H 60.17113100652893 104.91377574091436 9.8263982763944 H 0.0 **** 0.06
3669 H 60.85451599126883 104.4435064541903 11.401749907771318 H 0.0 **** 0.06
3670 H 60.48462362419368 106.15235228804835 11.066802879140482 H 0.0 **** 0.06
3671 C 4.475759671198631 21.499523128918433 104.27485691141953 C 0.0 **** -0.24
3672 H 5.157803128074704 21.853380330924747 103.50028096279192 H 0.0 **** 0.06
3673 H 5.038978728398149 20.95091830423618 105.03062147686978 H 0.0 **** 0.06
3674 H 3.729618611074386 20.842353789392327 103.82819603004953 H 0.0 **** 0.06
3675 H 3.9801045566645996 22.352273894261405 104.73851528728096 H 0.0 **** 0.06
3676 C 12.279231003833416 37.06458647194506 23.93228904121446 C 0.0 **** -0.24
3677 H 13.1612901468406 37.66974435799662 24.139321668288346 H 0.0 **** 0.06
3678 H 12.580408225059585 36.0329454604192 23.74870226494329 H 0.0 **** 0.06
3679 H 11.76871649439343 37.4567479714207 23.05169074357798 H 0.0 **** 0.06
3680 H 11.604971400611191 37.100429057720135 24.788291549167923 H 0.0 **** 0.06
3681 C 29.81092803046201 87.53462624087226 59.3993172192334 C 0.0 **** -0.24
3682 H 29.929549259288194 87.92419400093075 60.40990906227183 H 0.0 **** 0.06
3683 H 28.757200241382122 87.33394087173667 59.209051563254484 H 0.0 **** 0.06
3684 H 30.381855951330976 86.61194181613084 59.296396303403675 H 0.0 **** 0.06
3685 H 30.17692630016944 88.26917575252904 58.68227313295697 H 0.0 **** 0.06
3686 C 80.02354638345224 55.5275900398768 49.136968646925034 C 0.0 **** -0.24
3687 H 79.23716055264208 56.18824889709967 49.49983098192582 H 0.0 **** 0.06
3688 H 80.97831065814273 55.82914992015478 49.56784541290227 H 0.0 **** 0.06
3689 H 80.0781642875198 55.590318749304004 48.05073990311803 H 0.0 **** 0.06
3690 H 79.80008012509288 54.50188610694269 49.43150943659865 H 0.0 **** 0.06
3691 C 74.9419546137108 50.38975589975908 83.24842982335633 C 0.0 **** -0.24
3692 H 75.80068784258293 49.8675077600369 83.67022845559279 H 0.0 **** 0.06
3693 H 75.26503084835988 50.993505924581065 82.40044715163378 H 0.0 **** 0.06
3694 H 74.4999442719415 51.03467712757811 84.00741492832236 H 0.0 **** 0.06
3695 H 74.20216304729405 49.66160978870638 82.91580594280202 H 0.0 **** 0.06
3696 C 50.31278065968106 22.588031126182813 53.214302767996884 C 0.0 **** -0.24
3697 H 49.60110671127968 22.3746172528989 52.416844513823065 H 0.0 **** 0.06
3698 H 50.564849591132656 21.663487369638148 53.7337563888137 H 0.0 **** 0.06
3699 H 49.86927978779073 23.292018023080942 53.91866873072527 H 0.0 **** 0.06
3700 H 51.21615960807565 23.023994368600086 52.78696387293803 H 0.0 **** 0.06
3701 C 36.593273284807225 116.21210496961517 16.739973260556695 C 0.0 **** -0.24
3702 H 37.14908752321821 115.35787890740396 16.352302808046062 H 0.0 **** 0.06
3703 H 35.74626453551781 115.85840928140186 17.326831365897277 H 0.0 **** 0.06
3704 H 36.23260918066936 116.8177164445495 15.907842754365845 H 0.0 **** 0.06
3705 H 37.24710412409678 116.81408271164109 17.370679984368536 H 0.0 **** 0.06
3706 C 27.32139581819397 53.83008191833531 68.10669684362267 C 0.0 **** -0.24
3707 H 27.027417764193274 53.145257147992 67.31129889237653 H 0.0 **** 0.06
3708 H 27.80058109139027 53.268389963995816 68.90927310416072 H 0.0 **** 0.06
3709 H 26.437119254628833 54.336732991320844 68.49514979812494 H 0.0 **** 0.06
3710 H 28.019294732597245 54.568069048797355 67.71138423624697 H 0.0 **** 0.06
3711 C 15.564597212422868 61.48590675028414 86.12069098230876 C 0.0 **** -0.24
3712 H 15.96404763314193 60.803257323508014 85.37007847355102 H 0.0 **** 0.06
3713 H 14.522452799962409 61.23459432563967 86.32161918020734 H 0.0 **** 0.06
3714 H 15.62703593050216 62.5090280332194 85.75178430752965 H 0.0 **** 0.06
3715 H 16.144328089368187 61.394579281236624 87.03943980200253 H 0.0 **** 0.06
3716 C 2.515804265268656 105.62548897073955 102.6469166340986 C 0.0 **** -0.24
3717 H 2.854944261533774 105.90187848259583 103.64476171619526 H 0.0 **** 0.06
3718 H 1.5698685610093719 106.12409350893344 102.43438628258895 H 0.0 **** 0.06
3719 H 2.377079417487977 104.54592774751325 102.59619288362364 H 0.0 **** 0.06
3720 H 3.26118361315136 105.93141856130387 101.91267778363772 H 0.0 **** 0.06
3721 C 43.717204450746976 25.303783089376907 98.49825610336484 C 0.0 **** -0.24
3722 H 43.46705840835372 25.96120271160342 97.66591643006859 H 0.0 **** 0.06
3723 H 42.90440920238942 24.595997284545774 98.65938050372986 H 0.0 **** 0.06
3724 H 43.864947690326005 25.899402393131595 99.39994376223402 H 0.0 **** 0.06
3725 H 44.63387921097373 24.760011083419897 98.2690588552434 H 0.0 **** 0.06
3726 C 56.85145816723269 92.64673284533436 63.4455030929925 C 0.0 **** -0.24
3727 H 56.8490431277022 91.55956770364583 63.52363172931003 H 0.0 **** 0.06
3728 H 55.90936421218987 93.04057464662023 63.82646314622678 H 0.0 **** 0.06
3729 H 56.972027542115 92.93510188473422 62.40205726610976 H 0.0 **** 0.06
3730 H 57.67717008414206 93.05075797072894 64.03185924499533 H 0.0 **** 0.06
3731 C 95.06263686714561 63.36331950757607 61.122751543770555 C 0.0 **** -0.24
3732 H 95.8193897805117 62.86731817824823 60.513458690720036 H 0.0 **** 0.06
3733 H 94.48310526078367 64.04372057941566 60.49838987409202 H 0.0 **** 0.06
3734 H 95.55046828122545 63.926858405081326 61.91856712085387 H 0.0 **** 0.06
3735 H 94.40113110194062 62.61583897892171 61.559490466383515 H 0.0 **** 0.06
3736 C 36.139930559441765 10.214680688121263 60.44313169584302 C 0.0 **** -0.24
3737 H 36.78976290946642 9.78605542845979 59.67984714989248 H 0.0 **** 0.06
3738 H 36.72328063788962 10.425320541138305 61.339954729240816 H 0.0 **** 0.06
3739 H 35.34617966829941 9.50821462517716 60.68322982857106 H 0.0 **** 0.06
3740 H 35.70171473371126 11.140620980818284 60.0683523852864 H 0.0 **** 0.06
3741 C 28.021143628955905 77.1964437800961 81.96722776885093 C 0.0 **** -0.24
3742 H 28.44716708291042 77.00923413204492 80.98164392209773 H 0.0 **** 0.06
3743 H 27.169500940721534 76.53394594376294 82.12560510995937 H 0.0 **** 0.06
3744 H 27.69137299073101 78.23281609979591 82.02957057244456 H 0.0 **** 0.06
3745 H 28.774982959197374 77.0080897134435 82.73122969107024 H 0.0 **** 0.06
3746 C 88.9171688325493 32.11444731686993 3.7868438118906056 C 0.0 **** -0.24
3747 H 88.31625825905309 31.23429533327345 4.017377931725662 H 0.0 **** 0.06
3748 H 88.2867835318942 32.87184997435702 3.3208013670350027 H 0.0 **** 0.06
3749 H 89.71970347210379 31.836874459274554 3.1037271262059676 H 0.0 **** 0.06
3750 H 89.3443223989324 32.5123561128961 4.707611651911378 H 0.0 **** 0.06
3751 C 82.55610369929482 92.84056253846597 84.76673686764593 C 0.0 **** -0.24
3752 H 82.36287899093455 91.78197010693168 84.94055356689961 H 0.0 **** 0.06
3753 H 82.76230577314797 93.33292780043084 85.71743090733935 H 0.0 **** 0.06
3754 H 81.68234628605984 93.29709706913246 84.30242325242585 H 0.0 **** 0.06
3755 H 83.41704991059996 92.94826555227289 84.10754675528864 H 0.0 **** 0.06
3756 C 99.9498896372209 107.19769306307495 108.30757702542928 C 0.0 **** -0.24
3757 H 99.43850978207391 108.13574359779852 108.08838331177546 H 0.0 **** 0.06
3758 H 101.02262158158888 107.3284786685748 108.16413266164184 H 0.0 **** 0.06
3759 H 99.58462311113018 106.42052038824914 107.6370452204882 H 0.0 **** 0.06
3760 H 99.75240567688218 106.91007027031182 109.33989923284076 H 0.0 **** 0.06
3761 C 114.70739266174073 18.419882390874818 18.496113652964027 C 0.0 **** -0.24
3762 H 115.59801855806339 17.83032249820559 18.281117029424138 H 0.0 **** 0.06
3763 H 114.8832221213173 19.45910403339539 18.21907156614401 H 0.0 **** 0.06
3764 H 114.48195297032251 18.361384408276137 19.561156339177387 H 0.0 **** 0.06
3765 H 113.86498723957605 18.02882768628163 17.92512388345989 H 0.0 **** 0.06
3766 C 4.815092402700628 26.419657498345373 34.969517166472 C 0.0 **** -0.24
3767 H 5.6063260859315704 26.8371698936092 35.592203784121494 H 0.0 **** 0.06
3768 H 3.85498401857501 26.539023683829612 35.473650771715114 H 0.0 **** 0.06
3769 H 5.007891353881988 25.36039295871717 34.799760986685726 H 0.0 **** 0.06
3770 H 4.791593576694183 26.943052866847268 34.013347674927985 H 0.0 **** 0.06
3771 C 74.05321607171504 69.67834010784384 3.615961446211628 C 0.0 **** -0.24
3772 H 73.72623242996343 70.71827624779479 3.6067143105375834 H 0.0 **** 0.06
3773 H 73.51963420658242 69.13600479035509 4.3963624636244845 H 0.0 **** 0.06
3774 H 75.12502305750377 69.63576105448382 3.8107428598918744 H 0.0 **** 0.06
3775 H 73.84225593572563 69.22359783398261 2.6478254648031054 H 0.0 **** 0.06
3776 C 29.97603391369526 11.702600246490977 94.30930359458358 C 0.0 **** -0.24
3777 H 29.5265649447918 12.304892716683746 93.51881167065483 H 0.0 **** 0.06
3778 H 29.507188643388616 11.94668520582658 95.26279330904092 H 0.0 **** 0.06
3779 H 31.0436020429116 11.91470092441013 94.36376946650705 H 0.0 **** 0.06
3780 H 29.826532446457804 10.646125419832117 94.08940556320002 H 0.0 **** 0.06
3781 C 61.032851252981914 85.13292512276129 71.68074126857357 C 0.0 **** -0.24
3782 H 60.21641291202957 85.31339383051161 72.380487998397 H 0.0 **** 0.06
3783 H 61.98076730215962 85.38576948876647 72.15665712876608 H 0.0 **** 0.06
3784 H 60.89411458878385 85.75224858412068 70.79440861630798 H 0.0 **** 0.06
3785 H 61.03921766066048 84.0813169371225 71.39344755360017 H 0.0 **** 0.06
3786 C 34.904503745475296 0.8198539708676407 22.66508749172087 C 0.0 **** -0.24
3787 H 34.663017852027366 -0.23782330487603076 22.767952833158347 H 0.0 **** 0.06
3788 H 34.69150073095429 1.3338461961581487 23.602650130298173 H 0.0 **** 0.06
3789 H 34.302792066104956 1.2539505079114548 21.866307019679653 H 0.0 **** 0.06
3790 H 35.96216587202491 0.928532519489977 22.423629829404433 H 0.0 **** 0.06
3791 C 2.480513281192742 3.720512118701663 1.4677054064968047 C 0.0 **** -0.24
3792 H 1.7570005402920685 2.905449556641045 1.4395038563538947 H 0.0 **** 0.06
3793 H 2.5286930740114997 4.197589243139888 0.48785123238059214 H 0.0 **** 0.06
3794 H 3.4628982062760088 3.32498366864084 1.7273149534957497 H 0.0 **** 0.06
3795 H 2.1738537497216726 4.452956503254072 2.214227411257184 H 0.0 **** 0.06
3796 C 78.19457837327278 107.45768276232337 5.522197693632819 C 0.0 **** -0.24
3797 H 79.19533698775788 107.32331530809995 5.933491487374823 H 0.0 **** 0.06
3798 H 78.06687453588137 108.49387143053727 5.207995887805794 H 0.0 **** 0.06
3799 H 77.45351819568052 107.21535522240282 6.2844057921743115 H 0.0 **** 0.06
3800 H 78.06270581087597 106.79882142093209 4.664156725291662 H 0.0 **** 0.06
3801 C 113.23060131003034 17.586886832388473 84.70284585178939 C 0.0 **** -0.24
3802 H 112.21007605426954 17.20628679844998 84.66844021973762 H 0.0 **** 0.06
3803 H 113.7122651523316 17.25183969996189 85.6225732279693 H 0.0 **** 0.06
3804 H 113.21190579619466 18.676772606268344 84.6781581220049 H 0.0 **** 0.06
3805 H 113.78717180718537 17.213695929620485 83.84392343336481 H 0.0 **** 0.06
3806 C 29.311707631787527 11.13284557046174 61.366916532147854 C 0.0 **** -0.24
3807 H 28.391159334579868 10.72442289317803 60.95095059034014 H 0.0 **** 0.06
3808 H 30.03533701453469 10.329195288749474 61.50386073535594 H 0.0 **** 0.06
3809 H 29.101063124491702 11.600722295689394 62.32802171004755 H 0.0 **** 0.06
3810 H 29.720412890158315 11.876267825455216 60.68280886106686 H 0.0 **** 0.06
3811 C 8.155518607550391 93.94261653139725 114.21949243359457 C 0.0 **** -0.24
3812 H 7.511435697946382 93.50090738194629 113.4583214479178 H 0.0 **** 0.06
3813 H 8.677621901732437 94.80148401656291 113.7975602491816 H 0.0 **** 0.06
3814 H 8.883454938106695 93.20230172585829 114.55289116069443 H 0.0 **** 0.06
3815 H 7.549535792618542 94.26379632220088 115.066181447345 H 0.0 **** 0.06
3816 C 34.0351411593584 71.44321910850155 77.49678584352739 C 0.0 **** -0.24
3817 H 33.99671719429321 70.86855639929709 76.57101245139427 H 0.0 **** 0.06
3818 H 34.270905675282535 70.77813031302804 78.32692492336048 H 0.0 **** 0.06
3819 H 33.06767241095545 71.91431870447877 77.67161541668622 H 0.0 **** 0.06
3820 H 34.80340279057825 72.21121631099214 77.41533496470731 H 0.0 **** 0.06
3821 C 25.612727217380034 89.74818597091559 59.324368248506595 C 0.0 **** -0.24
3822 H 25.51949850243067 90.83189905255381 59.25797325120181 H 0.0 **** 0.06
3823 H 26.08819377561383 89.48119221165811 60.26890090050167 H 0.0 **** 0.06
3824 H 26.221428396789335 89.38560715553666 58.49602384912664 H 0.0 **** 0.06
3825 H 24.623085213063185 89.29417135953497 59.274025439083836 H 0.0 **** 0.06
3826 C 23.420884992439227 70.9470229286282 49.568891915590484 C 0.0 **** -0.24
3827 H 24.392002971571202 71.13406039188726 49.10982997730015 H 0.0 **** 0.06
3828 H 22.66900500416699 71.58004280979304 49.0975594599323 H 0.0 **** 0.06
3829 H 23.472717640811737 71.17551006061291 50.63394263624866 H 0.0 **** 0.06
3830 H 23.151642727118514 69.89953921067416 49.43496506169694 H 0.0 **** 0.06
3831 C 44.356889602339926 112.61690343555362 96.10589848067826 C 0.0 **** -0.24
3832 H 44.23264642751145 113.03609269622565 95.10705764987745 H 0.0 **** 0.06
3833 H 44.92162743528032 111.68594826533202 96.04117820094723 H 0.0 **** 0.06
3834 H 43.37752463764949 112.41879067358646 96.53991517125189 H 0.0 **** 0.06
3835 H 44.89604776825415 113.32679927360904 96.73301037301837 H 0.0 **** 0.06
3836 C 53.584444739920315 38.55403202885417 34.155906581643876 C 0.0 **** -0.24
3837 H 54.426210457111836 38.377775618868895 34.82474367343531 H 0.0 **** 0.06
3838 H 53.91892337932333 39.136493815173054 33.297081623770566 H 0.0 **** 0.06
3839 H 52.80738467632497 39.10394590023748 34.68688997204032 H 0.0 **** 0.06
3840 H 53.18573204452659 37.59919477550383 33.814544721085895 H 0.0 **** 0.06
3841 C 71.91720656388227 61.34414975960124 76.89987698396985 C 0.0 **** -0.24
3842 H 72.29654443479834 61.12069948106762 75.90297042279187 H 0.0 **** 0.06
3843 H 71.58649153798393 60.42186357310612 77.37756802555745 H 0.0 **** 0.06
3844 H 71.07717616859085 62.03488694896214 76.8226172118612 H 0.0 **** 0.06
3845 H 72.70771324010397 61.79925137734739 77.49593036324706 H 0.0 **** 0.06
3846 C 79.64300103619291 81.73039878060663 98.58598214381658 C 0.0 **** -0.24
3847 H 79.3550252094023 81.40333791637565 97.58582455517302 H 0.0 **** 0.06
3848 H 78.75482470530238 81.80519754018715 99.21252492172701 H 0.0 **** 0.06
3849 H 80.12802745243903 82.70417854313649 98.52298787456655 H 0.0 **** 0.06
3850 H 80.33366140752571 81.00715044698805 99.01930656173928 H 0.0 **** 0.06
3851 C 93.37181835854909 32.92665413427363 57.95081640886756 C 0.0 **** -0.24
3852 H 93.12018610596715 32.554367706727476 58.94422872515984 H 0.0 **** 0.06
3853 H 94.41137954878266 32.68732384647484 57.72624675924833 H 0.0 **** 0.06
3854 H 93.2324246077008 34.00743938233353 57.92239795409581 H 0.0 **** 0.06
3855 H 92.72192913855 32.458119810614164 57.21233248593479 H 0.0 **** 0.06
3856 C 109.83450811324667 84.46147365950628 52.06909534634205 C 0.0 **** -0.24
3857 H 109.21378919638151 83.8347828586891 51.42805425415156 H 0.0 **** 0.06
3858 H 109.20028351988944 85.14399602567931 52.63449549664057 H 0.0 **** 0.06
3859 H 110.52856357278688 85.03344285025179 51.453906608055945 H 0.0 **** 0.06
3860 H 110.39544163188881 83.83019452838391 52.75854674767362 H 0.0 **** 0.06
3861 C 66.35674588714352 19.604440875913618 41.65859318953784 C 0.0 **** -0.24
3862 H 65.97724876723345 19.073457297348817 42.531320702711184 H 0.0 **** 0.06
3863 H 65.63816325883317 19.521341143149975 40.8426161904662 H 0.0 **** 0.06
3864 H 67.30689816749668 19.167222475319697 41.35259539624943 H 0.0 **** 0.06
3865 H 66.50344812679384 20.655397834602347 41.90845697267767 H 0.0 **** 0.06
3866 C 67.3319721368309 37.9527524999086 9.276683485626393 C 0.0 **** -0.24
3867 H 68.37047625880146 37.71401466285731 9.046893559890549 H 0.0 **** 0.06
3868 H 67.1731335171755 39.02565763818089 9.167450554876012 H 0.0 **** 0.06
3869 H 67.10950020051249 37.653643065802726 10.300991424187288 H 0.0 **** 0.06
3870 H 66.67512333890062 37.41700589349216 8.590760570340677 H 0.0 **** 0.06
3871 C 83.55651111447258 30.802236374310326 10.238521803208315 C 0.0 **** -0.24
3872 H 83.20021904095074 30.364828776282366 9.306214729407031 H 0.0 **** 0.06
3873 H 83.98556424251004 31.784983077865917 10.037274623500252 H 0.0 **** 0.06
3874 H 84.31739412258301 30.155635568811476 10.675588627939035 H 0.0 **** 0.06
3875 H 82.7230857995288 30.905481055468925 10.933004138607302 H 0.0 **** 0.06
3876 C 102.89216760040537 114.29649130619941 0.986388742490357 C 0.0 **** -0.24
3877 H 101.82987296826957 114.4120342918689 0.7715239208727525 H 0.0 **** 0.06
3878 H 103.47488507180901 114.81037433048914 0.2219447970150199 H 0.0 **** 0.06
3879 H 103.14935047318673 113.2373337189369 0.9886542379960623 H 0.0 **** 0.06
3880 H 103.11347862536584 114.72660013488144 1.9626047663573605 H 0.0 **** 0.06
3881 C 115.51565289601855 42.261201127833914 33.38302509777441 C 0.0 **** -0.24
3882 H 114.60507239759026 42.25189585150599 32.78341641540703 H 0.0 **** 0.06
3883 H 115.2738941255434 42.002445983564115 34.41509756665242 H 0.0 **** 0.06
3884 H 115.96014829055406 43.25558014300569 33.35242873804333 H 0.0 **** 0.06
3885 H 116.22133141055933 41.534804434055445 32.98171030793122 H 0.0 **** 0.06
3886 C 58.486268941641924 34.87327829888392 51.62454351858864 C 0.0 **** -0.24
3887 H 58.9866831480725 35.72173947001545 52.09073897272103 H 0.0 **** 0.06
3888 H 57.78156312843137 34.433045598253045 52.331084344867094 H 0.0 **** 0.06
3889 H 59.22816470582484 34.127480569490615 51.33827369034108 H 0.0 **** 0.06
3890 H 57.94963876339881 35.21105921639918 50.73799568292608 H 0.0 **** 0.06
3891 C 18.274766608131685 94.58231967367507 28.125485730045284 C 0.0 **** -0.24
3892 H 19.002449227918657 95.21620057793601 27.618883359510278 H 0.0 **** 0.06
3893 H 17.272867546436498 94.97949570696278 27.96401930585995 H 0.0 **** 0.06
3894 H 18.491770183241954 94.56306768392975 29.193323617299257 H 0.0 **** 0.06
3895 H 18.33402784290028 93.57019460092445 27.724878783751336 H 0.0 **** 0.06
3896 C 55.87411599913443 57.55846338452173 48.607828758052364 C 0.0 **** -0.24
3897 H 55.34214292717181 56.626644111197464 48.796116778011964 H 0.0 **** 0.06
3898 H 56.22676973699569 57.97293966035784 49.5527762592497 H 0.0 **** 0.06
3899 H 55.20068139263091 58.26981679429892 48.12743074477244 H 0.0 **** 0.06
3900 H 56.72496425635532 57.36544124254161 47.95436516480822 H 0.0 **** 0.06
3901 C 100.82529566540194 10.996577194168196 81.26275436051404 C 0.0 **** -0.24
3902 H 100.27452016811537 10.266256533912781 80.6684243534342 H 0.0 **** 0.06
3903 H 101.21260242034344 10.515593352904943 82.16141226861734 H 0.0 **** 0.06
3904 H 100.16003209576712 11.81196322193199 81.54394091898115 H 0.0 **** 0.06
3905 H 101.65426884133313 11.390237628416116 80.67482248904176 H 0.0 **** 0.06
3906 C 52.918907685283365 15.753305125262905 110.24390309650533 C 0.0 **** -0.24
3907 H 51.85229535757179 15.539983559534608 110.17030931147724 H 0.0 **** 0.06
3908 H 53.485724790903305 14.85368907694443 110.00303107837249 H 0.0 **** 0.06
3909 H 53.155844024556096 16.072928030590724 111.2587480801954 H 0.0 **** 0.06
3910 H 53.180044882081006 16.545671590025403 109.54245765104986 H 0.0 **** 0.06
3911 C 14.62414837371293 22.754916159909886 113.43725639706128 C 0.0 **** -0.24
3912 H 13.794006928797277 22.6352613482173 114.13313415160258 H 0.0 **** 0.06
3913 H 14.291453403057755 22.50291881972284 112.42981437796334 H 0.0 **** 0.06
3914 H 15.4393500785045 22.091283333516042 113.7276693567286 H 0.0 **** 0.06
3915 H 14.970947418251193 23.78819066336621 113.45891754819536 H 0.0 **** 0.06
3916 C 41.60209895842752 21.919781827579442 24.292504164877982 C 0.0 **** -0.24
3917 H 41.904821934157155 21.383915808621033 23.392566717858585 H 0.0 **** 0.06
3918 H 41.62004009192364 21.239549793998616 25.144358316580508 H 0.0 **** 0.06
3919 H 40.59222581791343 22.309192385307817 24.159036220143776 H 0.0 **** 0.06
3920 H 42.28951041522154 22.74637173555544 24.47077515868108 H 0.0 **** 0.06
3921 C 60.580556889352174 30.25189079941775 53.92509121131849 C 0.0 **** -0.24
3922 H 61.397578602987956 30.875591935635498 54.28828041359037 H 0.0 **** 0.06
3923 H 60.25594778354725 30.613211515443254 52.948703838993936 H 0.0 **** 0.06
3924 H 59.747202680353446 30.29947362444514 54.626326281709964 H 0.0 **** 0.06
3925 H 60.922841550421474 29.221085615997566 53.836075352205114 H 0.0 **** 0.06
3926 C 104.97354034360356 108.42923594685789 102.99125396552438 C 0.0 **** -0.24
3927 H 105.74997653250045 109.12959939068237 103.3000142136068 H 0.0 **** 0.06
3928 H 104.04393123760218 108.66515440438693 103.51029579664566 H 0.0 **** 0.06
3929 H 105.28111478925234 107.41352955440166 103.2389986386803 H 0.0 **** 0.06
3930 H 104.8189722077494 108.5091209976901 101.91483532739824 H 0.0 **** 0.06
3931 C 74.35946682271106 7.374727438136404 64.34490306962928 C 0.0 **** -0.24
3932 H 73.92872275149392 7.679721526131061 65.29921862804258 H 0.0 **** 0.06
3933 H 75.35512449309823 6.9628272651519865 64.5122532067274 H 0.0 **** 0.06
3934 H 74.4294362112673 8.239452156064317 63.68529000824062 H 0.0 **** 0.06
3935 H 73.72444515630099 6.617239878230919 63.88582897228111 H 0.0 **** 0.06
3936 C 96.69167005290515 110.85057189331965 79.12464848338709 C 0.0 **** -0.24
3937 H 96.32029495197358 111.31886791936404 78.21267239861947 H 0.0 **** 0.06
3938 H 97.3719012396997 110.04010290551328 78.86406551898042 H 0.0 **** 0.06
3939 H 95.85299097476229 110.45186524672837 79.69525637841315 H 0.0 **** 0.06
3940 H 97.21982203078917 111.59139158407476 79.72410872540945 H 0.0 **** 0.06
3941 C 50.54671100251511 11.622436043575306 92.75293440517987 C 0.0 **** -0.24
3942 H 51.2086048492219 10.903639204385428 93.23601163180285 H 0.0 **** 0.06
3943 H 50.2604402064411 12.39095850507465 93.47069843538259 H 0.0 **** 0.06
3944 H 49.65530715885694 11.10868725911233 92.3929894940535 H 0.0 **** 0.06
3945 H 51.06460949211396 12.084137681795738 91.91239368336835 H 0.0 **** 0.06
3946 C 89.89052779607528 80.19939096625646 74.1589100559641 C 0.0 **** -0.24
3947 H 89.37117775551681 79.57598949170318 73.43097248270675 H 0.0 **** 0.06
3948 H 90.66984722649542 79.61420520415342 74.64773502562144 H 0.0 **** 0.06
3949 H 89.18072989157915 80.55645882994017 74.90494653490742 H 0.0 **** 0.06
3950 H 90.34102103132378 81.05157139319476 73.64972310694571 H 0.0 **** 0.06
3951 C 9.669671013976298 65.24151864405044 9.70386423809634 C 0.0 **** -0.24
3952 H 9.529351442901106 64.39256822945947 9.034993877782377 H 0.0 **** 0.06
3953 H 8.863689677033154 65.95936105975977 9.553710056981664 H 0.0 **** 0.06
3954 H 10.626660225072637 65.71857391572601 9.488945719077726 H 0.0 **** 0.06
3955 H 9.660669647767968 64.8956650761873 10.737425673684779 H 0.0 **** 0.06
3956 C 13.911782842782685 65.16093832677029 22.44400612955795 C 0.0 **** -0.24
3957 H 13.81589867787713 64.17765703307816 21.98443781086803 H 0.0 **** 0.06
3958 H 13.173747541108327 65.26295971677979 23.240773725270998 H 0.0 **** 0.06
3959 H 13.744639188255718 65.93259874838569 21.692494877862828 H 0.0 **** 0.06
3960 H 14.91330320793196 65.2698778258935 22.860405121395274 H 0.0 **** 0.06
3961 C 35.85342993292193 67.38605736895758 112.54602596219377 C 0.0 **** -0.24
3962 H 36.331195203858414 67.03723355253712 113.46120475385324 H 0.0 **** 0.06
3963 H 35.152162706521125 68.18635827801864 112.78527014339979 H 0.0 **** 0.06
3964 H 35.3172071932226 66.56066439896139 112.0789772318932 H 0.0 **** 0.06
3965 H 36.61301856930319 67.7604144041363 111.86059776690047 H 0.0 **** 0.06
3966 C 11.1234297886555 93.30046277472815 74.96042979625116 C 0.0 **** -0.24
3967 H 10.555515239971882 94.21372410054454 75.14205541697038 H 0.0 **** 0.06
3968 H 10.913080207673033 92.93745908048419 73.95475524837792 H 0.0 **** 0.06
3969 H 10.834857936966344 92.5435667498281 75.68897670074173 H 0.0 **** 0.06
3970 H 12.188770015683303 93.51078396934983 75.05741530754597 H 0.0 **** 0.06
3971 C 6.514626741353567 53.87591756283729 75.6504101491503 C 0.0 **** -0.24
3972 H 7.150286096651797 54.75575594073831 75.55071271202323 H 0.0 **** 0.06
3973 H 5.756251575544596 53.88564962223657 74.86612034942672 H 0.0 **** 0.06
3974 H 6.029326560380426 53.88732117488041 76.6262798379139 H 0.0 **** 0.06
3975 H 7.1230555427558215 52.97643266002012 75.55662707131535 H 0.0 **** 0.06
3976 C 23.524096294645872 109.78626093938664 47.40394330446563 C 0.0 **** -0.24
3977 H 22.683688979057308 110.1858202973234 47.97143059172927 H 0.0 **** 0.06
3978 H 23.198650665385003 108.91023083612862 46.84216717980394 H 0.0 **** 0.06
3979 H 24.323132398578565 109.50390617418043 48.08922794516323 H 0.0 **** 0.06
3980 H 23.889549281316988 110.54633798882435 46.71370498658041 H 0.0 **** 0.06
3981 C 80.38189842081664 47.2872952396275 54.56685652671813 C 0.0 **** -0.24
3982 H 80.71802597899111 46.42355204342931 55.14136586393328 H 0.0 **** 0.06
3983 H 80.83773005652066 48.19154988519341 54.96977463712717 H 0.0 **** 0.06
3984 H 79.29681375629073 47.3657641416209 54.63283271071083 H 0.0 **** 0.06
3985 H 80.67523636043964 47.165167171518476 53.524476308390206 H 0.0 **** 0.06
3986 C 79.0231951411661 103.42027954204588 73.20853598762437 C 0.0 **** -0.24
3987 H 79.14176926823154 104.48651943421311 73.01923317132488 H 0.0 **** 0.06
3988 H 79.99170866301597 102.98700806596287 73.46305021437246 H 0.0 **** 0.06
3989 H 78.63263652076205 102.93427409769973 72.31451550016382 H 0.0 **** 0.06
3990 H 78.32943185190695 103.27183209708429 74.03627377373903 H 0.0 **** 0.06
3991 C 85.56987937340304 4.2786336885461225 110.66145216835012 C 0.0 **** -0.24
3992 H 84.62099256086384 4.695200623779954 110.32340960351728 H 0.0 **** 0.06
3993 H 85.5383207568095 3.1923528252388564 110.58275749047957 H 0.0 **** 0.06
3994 H 85.74111730304952 4.56341551403203 111.70025096081764 H 0.0 **** 0.06
3995 H 86.37740452564233 4.665846829916504 110.04037402707829 H 0.0 **** 0.06
3996 C 12.734049667762978 100.7602256441933 98.91735321272387 C 0.0 **** -0.24
3997 H 11.908609993963179 100.32632008641622 99.48228800207511 H 0.0 **** 0.06
3998 H 12.505244838478415 101.79915587323705 98.68017545766008 H 0.0 **** 0.06
3999 H 12.877695107007849 100.19915588589654 97.99436586987287 H 0.0 **** 0.06
4000 H 13.645645449272987 100.71610444856711 99.51481494510728 H 0.0 **** 0.06
4001 C 44.37127838681076 78.45858133801136 103.10352540204369 C 0.0 **** -0.24
4002 H 45.25971480843049 78.74197847726722 103.66764749681221 H 0.0 **** 0.06
4003 H 43.877270707552356 77.62312366598252 103.5991924617677 H 0.0 **** 0.06
4004 H 44.66080677903378 78.16326441540684 102.09426414733616 H 0.0 **** 0.06
4005 H 43.688409873345876 79.30642798320656 103.05222621692036 H 0.0 **** 0.06
4006 C 61.05820508753425 3.491411379300608 30.519979438830454 C 0.0 **** -0.24
4007 H 60.4393782849817 3.8314031554494985 31.350484078259804 H 0.0 **** 0.06
4008 H 61.6689774584753 4.320074508496342 30.158974442281924 H 0.0 **** 0.06
4009 H 60.418416954539765 3.1339706066850983 29.713661167752726 H 0.0 **** 0.06
4010 H 61.70593123941802 2.682626215624108 30.856503269266263 H 0.0 **** 0.06
4011 C 75.40687693738155 30.030949797792232 87.64622923420822 C 0.0 **** -0.24
4012 H 74.67875998275602 30.33110160992706 86.8931007476005 H 0.0 **** 0.06
4013 H 74.89055014652482 29.57352075206157 88.48978138940123 H 0.0 **** 0.06
4014 H 75.95717529753361 30.907630845561386 87.98840030608099 H 0.0 **** 0.06
4015 H 76.10219790558497 29.312392374096817 87.21193099196938 H 0.0 **** 0.06
4016 C 9.79170654690633 79.87006632565937 89.55926097042561 C 0.0 **** -0.24
4017 H 9.180858819682182 80.26477339713736 88.74760074286806 H 0.0 **** 0.06
4018 H 9.156386208314636 79.32698812499228 90.25959600077769 H 0.0 **** 0.06
4019 H 10.282017012208101 80.69442472235835 90.07748763077623 H 0.0 **** 0.06
4020 H 10.545066549643913 79.19673751752222 89.15319342082879 H 0.0 **** 0.06
4021 C 84.88715297106248 46.17138236271249 100.23447550537185 C 0.0 **** -0.24
4022 H 85.40866370555926 45.79469022224322 99.35525284827222 H 0.0 **** 0.06
4023 H 84.58919482059417 47.20621616242423 100.06561486173604 H 0.0 **** 0.06
4024 H 85.54952965666348 46.120222268462186 101.09934417128895 H 0.0 **** 0.06
4025 H 84.00139279544624 45.562828853501415 100.41927149683494 H 0.0 **** 0.06
4026 C 14.398744169341569 77.52812346688512 81.56888270505635 C 0.0 **** -0.24
4027 H 13.999040154665181 76.60859962958662 81.99649184968345 H 0.0 **** 0.06
4028 H 15.354923611058894 77.7610670512178 82.0375138288565 H 0.0 **** 0.06
4029 H 13.69817805009535 78.34449445390845 81.74549388625866 H 0.0 **** 0.06
4030 H 14.540249203904636 77.3972193092633 80.49575716252309 H 0.0 **** 0.06
4031 C 1.262759063613771 52.202712622568335 89.91405597664135 C 0.0 **** -0.24
4032 H 0.19112572749162382 52.38491501003411 90.00162489585875 H 0.0 **** 0.06
4033 H 1.7965902348979625 53.15272046555046 89.96194586830165 H 0.0 **** 0.06
4034 H 1.4718337891347346 51.715270373070084 88.96214960558783 H 0.0 **** 0.06
4035 H 1.5899888283040582 51.561038077564284 90.73198287365011 H 0.0 **** 0.06
4036 C 78.9051392002535 80.16500454338023 33.318432722109264 C 0.0 **** -0.24
4037 H 78.19352823877813 79.67714304701491 32.6523464189458 H 0.0 **** 0.06
4038 H 79.44451882769286 79.40912085244537 33.89011400310733 H 0.0 **** 0.06
4039 H 78.36863707034502 80.82409828812541 34.001879089601346 H 0.0 **** 0.06
4040 H 79.61158930014494 80.7502701706731 32.730031200202745 H 0.0 **** 0.06
4041 C 31.999336996658208 97.46626613827362 101.28442597398632 C 0.0 **** -0.24
4042 H 32.836154221400975 97.36878115699568 100.59230415197266 H 0.0 **** 0.06
4043 H 31.758116625280735 96.48825136990104 101.70259567101158 H 0.0 **** 0.06
4044 H 31.133119794079633 97.85852661109303 100.75314229314881 H 0.0 **** 0.06
4045 H 32.27219221693311 98.14887221683048 102.08888411691382 H 0.0 **** 0.06
4046 C 75.55349136792842 111.5946702594295 97.45472406492243 C 0.0 **** -0.24
4047 H 75.574307529827 111.31916149562738 96.40097623281699 H 0.0 **** 0.06
4048 H 75.06125931349598 110.8073074107607 98.02613490799524 H 0.0 **** 0.06
4049 H 75.00324609321444 112.52914083359497 97.57537642388161 H 0.0 **** 0.06
4050 H 76.57274582511022 111.72531462435694 97.81682806461274 H 0.0 **** 0.06
4051 C 80.35496076453114 103.82489990729547 91.6273193378924 C 0.0 **** -0.24
4052 H 80.88914410449775 104.46609402093662 92.32871526936384 H 0.0 **** 0.06
4053 H 79.39955061341473 103.52952549447346 92.0596436354842 H 0.0 **** 0.06
4054 H 80.95184009977834 102.93531689221155 91.4231058350868 H 0.0 **** 0.06
4055 H 80.18238437842089 104.36807736878399 90.6982538962479 H 0.0 **** 0.06
4056 C 0.4642828962834109 38.369433110224804 36.606278606253596 C 0.0 **** -0.24
4057 H 1.415879100081506 37.912730115322404 36.33451216802271 H 0.0 **** 0.06
4058 H -0.31435530111971666 38.01704012360938 35.929056513426474 H 0.0 **** 0.06
4059 H 0.5469854293075862 39.45357156409102 36.532664471357606 H 0.0 **** 0.06
4060 H 0.20708129123324426 38.09337012859095 37.62964541206338 H 0.0 **** 0.06
4061 C 26.85913252873013 86.57588020474898 71.30539474382891 C 0.0 **** -0.24
4062 H 27.445619813380233 87.20458878305251 70.63507602794238 H 0.0 **** 0.06
4063 H 25.820037761769527 86.56267197560388 70.97507576843105 H 0.0 **** 0.06
4064 H 26.913542619833464 86.97635058758254 72.31857986165153 H 0.0 **** 0.06
4065 H 27.25789122644693 85.56207879591352 71.29457342170343 H 0.0 **** 0.06
4066 C 19.143918614942777 64.24987519062043 30.485576783982964 C 0.0 **** -0.24
4067 H 18.723960754648317 63.61003069080321 31.261270241450802 H 0.0 **** 0.06
4068 H 18.532097762724902 65.14711560089219 30.384448436280877 H 0.0 **** 0.06
4069 H 19.157807564044617 63.71072357298133 29.53854110601918 H 0.0 **** 0.06
4070 H 20.16076141266734 64.532441644002 30.759163921751792 H 0.0 **** 0.06
4071 C 110.12306692565221 95.52007700249575 105.03475257047461 C 0.0 **** -0.24
4072 H 110.14226891540764 94.44766387789073 104.83874649190014 H 0.0 **** 0.06
4073 H 109.89306997815007 96.0536644261849 104.11247721207911 H 0.0 **** 0.06
4074 H 111.09739113563006 95.83857725590892 105.40617002085179 H 0.0 **** 0.06
4075 H 109.35998815872034 95.7387772670578 105.78201154764304 H 0.0 **** 0.06
4076 C 102.01619334569585 65.25674253007173 30.543035638502005 C 0.0 **** -0.24
4077 H 101.46174322366821 64.34110129845376 30.750072340145977 H 0.0 **** 0.06
4078 H 102.25860590723445 65.75520535840491 31.481621771015313 H 0.0 **** 0.06
4079 H 101.40592379338096 65.91783111791122 29.92740105587319 H 0.0 **** 0.06
4080 H 102.93684951762802 65.01255903210796 30.012600320795514 H 0.0 **** 0.06
4081 C 84.29342664401943 61.66359961313918 114.88087469900219 C 0.0 **** -0.24
4082 H 85.23893670362426 61.812696429644745 114.3600524689252 H 0.0 **** 0.06
4083 H 84.48604104503053 61.45220615516925 115.93228490168043 H 0.0 **** 0.06
4084 H 83.76055357681011 60.82452727236475 114.43312712722705 H 0.0 **** 0.06
4085 H 83.6865044891588 62.56591244754972 114.79651178461617 H 0.0 **** 0.06
4086 C 35.664138325729425 30.251054919352498 0.7503281999837554 C 0.0 **** -0.24
4087 H 34.99574907483952 31.110030937257932 0.6901369938172053 H 0.0 **** 0.06
4088 H 36.28690837074973 30.211282453126188 -0.14364585832203147 H 0.0 **** 0.06
4089 H 35.0747866635721 29.337089247665375 0.8245531213241577 H 0.0 **** 0.06
4090 H 36.299824457081 30.34741679415876 1.6312326049193615 H 0.0 **** 0.06
4091 C 53.84940635788278 65.77930593393324 12.766114312244866 C 0.0 **** -0.24
4092 H 54.81337730791624 65.77883244913693 13.276172959753382 H 0.0 **** 0.06
4093 H 53.493739051051755 66.80519396104194 12.66387653466117 H 0.0 **** 0.06
4094 H 53.13120787309249 65.20160625117921 13.348116020236432 H 0.0 **** 0.06
4095 H 53.96083593532945 65.33302642426716 11.778654981465166 H 0.0 **** 0.06
4096 C 18.36495700474225 58.596663350410346 101.28358944051843 C 0.0 **** -0.24
4097 H 19.1330937713833 58.346909031290174 100.5526998684843 H 0.0 **** 0.06
4098 H 17.660789858368645 59.303634289061 100.84307862294023 H 0.0 **** 0.06
4099 H 18.830181766847602 59.04574147499793 102.1607397633961 H 0.0 **** 0.06
4100 H 17.83479516534996 57.69060548781113 101.57775022056907 H 0.0 **** 0.06
4101 C 14.99221516641957 24.84506646283222 37.87411344739226 C 0.0 **** -0.24
4102 H 14.197136865233972 24.111220344925243 38.00888131603813 H 0.0 **** 0.06
4103 H 15.02202619775835 25.50968756657619 38.73788603990897 H 0.0 **** 0.06
4104 H 14.79948851956938 25.42809449934606 36.973966421254886 H 0.0 **** 0.06
4105 H 15.948746256211237 24.33147084093514 37.77739852740899 H 0.0 **** 0.06
4106 C 59.7064347901622 10.90410949207429 113.42351089835316 C 0.0 **** -0.24
4107 H 60.457991018011874 10.153537156053897 113.66728608610515 H 0.0 **** 0.06
4108 H 59.104874474454384 10.555630658964667 112.58328133203574 H 0.0 **** 0.06
4109 H 60.20061491307349 11.837838315790314 113.15379902225055 H 0.0 **** 0.06
4110 H 59.06347227915166 11.06941094403889 114.28754941451268 H 0.0 **** 0.06
4111 C 26.13233945874032 104.24799427539631 79.61402199653108 C 0.0 **** -0.24
4112 H 25.183561989038424 104.78441868344575 79.63149026493846 H 0.0 **** 0.06
4113 H 26.85815532305736 104.7739878934893 80.23371464208728 H 0.0 **** 0.06
4114 H 26.499434233337865 104.19370913984429 78.58914516765182 H 0.0 **** 0.06
4115 H 25.985863820825102 103.23932239612046 80.00126602176246 H 0.0 **** 0.06
4116 C 89.85981602481556 40.6985362022522 43.154337444246664 C 0.0 **** -0.24
4117 H 88.8243555127141 41.01282543986753 43.290729719768535 H 0.0 **** 0.06
4118 H 90.04982850603736 40.52430533339506 42.095130267742036 H 0.0 **** 0.06
4119 H 90.03603243408446 39.77928535912571 43.71167715079116 H 0.0 **** 0.06
4120 H 90.52743977493887 41.479251396129 43.51950221183631 H 0.0 **** 0.06
4121 C 38.987121084784455 41.4295262591246 88.87962212457737 C 0.0 **** -0.24
4122 H 38.41549011901277 42.34097546128913 88.70832039317699 H 0.0 **** 0.06
4123 H 38.53399062397985 40.86471629344831 89.69588225435473 H 0.0 **** 0.06
4124 H 40.01315092191058 41.68852179112196 89.14284657459584 H 0.0 **** 0.06
4125 H 38.98589452680804 40.82362845517147 87.97425521742855 H 0.0 **** 0.06
4126 C 78.08553695925372 43.96102628516499 14.982631763500478 C 0.0 **** -0.24
4127 H 77.56368915252506 44.34238020304443 15.859824427713871 H 0.0 **** 0.06
4128 H 77.84506092943377 44.58089841236077 14.118807244515782 H 0.0 **** 0.06
4129 H 77.77430036762956 42.934514759794496 14.791802588135827 H 0.0 **** 0.06
4130 H 79.16058346532196 43.98720019494081 15.160043400340484 H 0.0 **** 0.06
4131 C 99.16868264589695 21.99971363381384 98.52687504421812 C 0.0 **** -0.24
4132 H 99.48878846726333 22.965418223791957 98.13532059243602 H 0.0 **** 0.06
4133 H 99.54628568001073 21.203870836107555 97.88444046521252 H 0.0 **** 0.06
4134 H 98.07968764584686 21.961563064831154 98.55196255082251 H 0.0 **** 0.06
4135 H 99.56109355816398 21.868859515187182 99.53579619809847 H 0.0 **** 0.06
4136 C 33.68813852836729 92.9522901224781 46.15301052708293 C 0.0 **** -0.24
4137 H 33.785827140833476 92.42506789192333 45.203913782371416 H 0.0 **** 0.06
4138 H 33.91593755902636 92.26976218129818 46.97191356782969 H 0.0 **** 0.06
4139 H 32.668398783089515 93.32168260693732 46.259795299275055 H 0.0 **** 0.06
4140 H 34.38345025227102 93.7916414680993 46.17505391485432 H 0.0 **** 0.06
4141 C 80.49038917179541 51.48402341301278 87.86968039013212 C 0.0 **** -0.24
4142 H 81.47532558326239 51.25001246142227 87.46533014575877 H 0.0 **** 0.06
4143 H 79.87720775885921 51.93928724983192 87.09190062404622 H 0.0 **** 0.06
4144 H 80.59575439388794 52.17878697622905 88.70354595850728 H 0.0 **** 0.06
4145 H 80.01421579123294 50.567600400646086 88.21891349922669 H 0.0 **** 0.06
4146 C 21.092870019600298 112.46194051907159 5.638725362410014 C 0.0 **** -0.24
4147 H 21.346685028420353 113.4553128588452 6.007426116289565 H 0.0 **** 0.06
4148 H 21.995655684507057 111.85035832413104 5.5931907275088975 H 0.0 **** 0.06
4149 H 20.658863547830265 112.54449004134247 4.6422179966852255 H 0.0 **** 0.06
4150 H 20.372995578714068 111.9971471053304 6.312697067803496 H 0.0 **** 0.06
4151 C 37.10486935641771 111.94949592398663 47.56000757444201 C 0.0 **** -0.24
4152 H 36.68681524974937 112.33760490370696 46.631031166768935 H 0.0 **** 0.06
4153 H 38.179597738681935 112.13400106149714 47.57967488860453 H 0.0 **** 0.06
4154 H 36.9180652909769 110.87738480992888 47.62140761256654 H 0.0 **** 0.06
4155 H 36.634628296534686 112.44935270320838 48.40706042590469 H 0.0 **** 0.06
4156 C 50.761639790083095 49.07201131145793 70.06836105521049 C 0.0 **** -0.24
4157 H 51.767365473718144 49.43830086848533 70.27618987435702 H 0.0 **** 0.06
4158 H 50.82306557318921 48.14600826013664 69.4965960761254 H 0.0 **** 0.06
4159 H 50.21544289639442 49.819854168921914 69.49318717031781 H 0.0 **** 0.06
4160 H 50.2419467772001 48.88673384481305 71.00860060909301 H 0.0 **** 0.06
4161 C 88.30267425660435 59.82286683507482 107.70504238051231 C 0.0 **** -0.24
4162 H 88.63886136863607 60.82799044330247 107.45432419188367 H 0.0 **** 0.06
4163 H 88.75089171964277 59.51495709159062 108.65021734670955 H 0.0 **** 0.06
4164 H 88.60420007864704 59.13160395485107 106.91784558555557 H 0.0 **** 0.06
4165 H 87.21707758909866 59.81590528437047 107.79871379289477 H 0.0 **** 0.06
4166 C 38.05242703156915 62.227325063408095 8.546495375292182 C 0.0 **** -0.24
4167 H 37.9944283809306 62.52725665165152 7.500170299070437 H 0.0 **** 0.06
4168 H 37.88656214371875 63.09600696986548 9.183695149301588 H 0.0 **** 0.06
4169 H 39.03921352356829 61.80999218886874 8.750065336285484 H 0.0 **** 0.06
4170 H 37.290566488381785 61.474617146511314 8.751137294081655 H 0.0 **** 0.06
4171 C 22.88928210538316 67.2308777013908 100.75125762066045 C 0.0 **** -0.24
4172 H 22.10202828189898 67.03739331884651 100.02322800185141 H 0.0 **** 0.06
4173 H 23.586226461422683 66.39300814253292 100.76270837379397 H 0.0 **** 0.06
4174 H 22.44780238851058 67.34970339287077 101.74055891901415 H 0.0 **** 0.06
4175 H 23.42092895907072 68.14221503887867 100.47778579778665 H 0.0 **** 0.06
4176 C 109.24259808230399 26.38268279955105 90.24181540363512 C 0.0 **** -0.24
4177 H 109.86368122976921 27.25451742189631 90.033699711259 H 0.0 **** 0.06
4178 H 109.72410022306583 25.766350800148757 91.00089939735355 H 0.0 **** 0.06
4179 H 109.11586930943528 25.802133186084234 89.3278504433016 H 0.0 **** 0.06
4180 H 108.2675303530796 26.710488029127873 90.6026278720648 H 0.0 **** 0.06
4181 C 79.30336732717495 70.86782978874857 37.51063333639948 C 0.0 **** -0.24
4182 H 78.65432207014211 70.17422333587706 38.04622494603018 H 0.0 **** 0.06
4183 H 79.92538606529291 71.40844089764946 38.22533774526087 H 0.0 **** 0.06
4184 H 78.6939772995488 71.57615832367287 36.94956878294593 H 0.0 **** 0.06
4185 H 79.9395178844722 70.311097626324 36.82238792546471 H 0.0 **** 0.06
4186 C 66.58816549017342 68.55675995161826 1.136255982168592 C 0.0 **** -0.24
4187 H 65.74695037020115 68.04574707198759 1.6039673150230698 H 0.0 **** 0.06
4188 H 66.80225942566608 68.09722948257325 0.1711137525536941 H 0.0 **** 0.06
4189 H 67.4646340442406 68.47751118123378 1.779330990844386 H 0.0 **** 0.06
4190 H 66.33921418128409 69.607905712437 0.9907163021119771 H 0.0 **** 0.06
4191 C 13.856597752541319 32.908337786142255 33.18146742207347 C 0.0 **** -0.24
4192 H 13.939708915667921 32.016932007728684 33.80355926553818 H 0.0 **** 0.06
4193 H 13.689201246831402 33.77924654775512 33.81488614777365 H 0.0 **** 0.06
4194 H 13.018689268678827 32.79299333889409 32.49307213957698 H 0.0 **** 0.06
4195 H 14.776901206804865 33.041751333391005 32.61311425351582 H 0.0 **** 0.06
4196 C 60.89387293224962 71.88607344759527 22.65416776284614 C 0.0 **** -0.24
4197 H 61.05453689598363 71.08703346349697 23.377380811767594 H 0.0 **** 0.06
4198 H 60.74183418364879 72.8287069025398 23.182725730098944 H 0.0 **** 0.06
4199 H 60.013353270859284 71.66120286152801 22.052147561567693 H 0.0 **** 0.06
4200 H 61.76608780831572 71.97051330486804 22.005793568468064 H 0.0 **** 0.06
4201 C 38.60092911345507 103.3743106070201 70.4163019167743 C 0.0 **** -0.24
4202 H 39.35431852180193 104.12564703695409 70.65325959725823 H 0.0 **** 0.06
4203 H 38.25654915452943 103.5168893679936 69.39160696026823 H 0.0 **** 0.06
4204 H 37.75891370489472 103.47482695070437 71.10083712935602 H 0.0 **** 0.06
4205 H 39.03611075348829 102.38008302318528 70.5183971084806 H 0.0 **** 0.06
4206 C 8.43199298888291 25.658981748590463 103.77792776625847 C 0.0 **** -0.24
4207 H 8.745426481942445 24.61786069664224 103.85975936435315 H 0.0 **** 0.06
4208 H 7.594972042477323 25.839040755327908 104.45392241449676 H 0.0 **** 0.06
4209 H 8.123720721694937 25.866268498357456 102.75417229729527 H 0.0 **** 0.06
4210 H 9.262904551576554 26.310730499375758 104.04685614312885 H 0.0 **** 0.06
4211 C 45.54487181646056 57.36520829906089 8.746260848926113 C 0.0 **** -0.24
4212 H 46.03525298670607 56.538511821195605 8.231958190597936 H 0.0 **** 0.06
4213 H 44.95551566819253 56.977621387103746 9.576368430345354 H 0.0 **** 0.06
4214 H 44.89044768832326 57.889427106325975 8.049060210963901 H 0.0 **** 0.06
4215 H 46.29928891148111 58.05508399865166 9.12466848709083 H 0.0 **** 0.06
4216 C 14.162855997999316 35.364163655113195 26.42262311824839 C 0.0 **** -0.24
4217 H 13.38453699093327 35.862282972759154 27.00050080341459 H 0.0 **** 0.06
4218 H 13.79783552574554 35.170177553347905 25.414226177009617 H 0.0 **** 0.06
4219 H 14.423858309776648 34.42051154493913 26.903339818229206 H 0.0 **** 0.06
4220 H 15.044416727944707 36.003458733487065 26.37425523256281 H 0.0 **** 0.06
4221 C 11.195855445093006 34.60302120805261 103.76877890023715 C 0.0 **** -0.24
4222 H 11.940899751759247 33.913360845679506 103.370646263395 H 0.0 **** 0.06
4223 H 11.256993488339216 34.61434450975875 104.857225920388 H 0.0 **** 0.06
4224 H 10.200861504334469 34.27957360870755 103.46314567208032 H 0.0 **** 0.06
4225 H 11.387406111607255 35.605032700592204 103.38289502569282 H 0.0 **** 0.06
4226 C 61.848174003132016 89.60177614429708 51.41547051043733 C 0.0 **** -0.24
4227 H 62.30198937338707 89.56849057702007 50.424904179395185 H 0.0 **** 0.06
4228 H 61.85388154699265 90.62819397852792 51.783509736600195 H 0.0 **** 0.06
4229 H 62.41649361066936 88.96728729038327 52.09606342986251 H 0.0 **** 0.06
4230 H 60.82107542389036 89.2419968735177 51.35593615611265 H 0.0 **** 0.06
4231 C 109.90099511507839 91.74537108977006 88.70097113493199 C 0.0 **** -0.24
4232 H 110.65330980204664 91.82746428611938 89.48547880731064 H 0.0 **** 0.06
4233 H 110.36232052074364 91.9455839015585 87.73324196774368 H 0.0 **** 0.06
4234 H 109.1073438590566 92.47116948948906 88.88172069554196 H 0.0 **** 0.06
4235 H 109.4820100563165 90.73949270003072 88.7036370321978 H 0.0 **** 0.06
4236 C 106.99142431516808 10.090998281612183 74.72962770221278 C 0.0 **** -0.24
4237 H 107.3792901321203 9.20679982078638 74.22321760184138 H 0.0 **** 0.06
4238 H 106.70924563368098 9.830977844187501 75.7495524509525 H 0.0 **** 0.06
4239 H 106.11843013397458 10.463349355561036 74.19393769776246 H 0.0 **** 0.06
4240 H 107.76106579397214 10.86354200316838 74.75149657270697 H 0.0 **** 0.06
4241 C 73.12749417067465 7.244090165886007 53.98152357506839 C 0.0 **** -0.24
4242 H 73.23461548791556 6.422045444668271 54.68923429569322 H 0.0 **** 0.06
4243 H 73.78973125771194 8.060328760660013 54.27007783369121 H 0.0 **** 0.06
4244 H 72.09517946667086 7.594788897708298 53.98639703399226 H 0.0 **** 0.06
4245 H 73.38877433213537 6.899299084319324 52.98186180330509 H 0.0 **** 0.06
4246 C 11.068021528428417 35.83121399960501 71.23226915970506 C 0.0 **** -0.24
4247 H 10.069833450207241 35.57725436528595 71.58803733113001 H 0.0 **** 0.06
4248 H 11.014736124918898 36.722084917410285 70.60569937460474 H 0.0 **** 0.06
4249 H 11.468086955489497 34.99988232674062 70.65104775597743 H 0.0 **** 0.06
4250 H 11.71952332633353 36.024326401987494 72.08482179803369 H 0.0 **** 0.06
4251 C 45.428436681779125 45.961156388439335 42.67767501348052 C 0.0 **** -0.24
4252 H 45.12101197974308 45.57839690926731 41.704498668690974 H 0.0 **** 0.06
4253 H 45.62987140993964 45.126174714112224 43.34925126285486 H 0.0 **** 0.06
4254 H 44.630412211232226 46.57781179238404 43.09274741358086 H 0.0 **** 0.06
4255 H 46.33026786964801 46.562652359435695 42.563946975655824 H 0.0 **** 0.06
4256 C 66.51458176390668 80.11378605512104 85.56972939499195 C 0.0 **** -0.24
4257 H 67.57957357049031 80.33208656253055 85.49341241437517 H 0.0 **** 0.06
4258 H 66.00859928906442 80.94211323904602 86.06532071516077 H 0.0 **** 0.06
4259 H 66.37116426311945 79.2006823708376 86.148952277431 H 0.0 **** 0.06
4260 H 66.098482560344 79.9789729555998 84.57094769147238 H 0.0 **** 0.06
4261 C 33.476411744899735 48.31904797169523 8.225349881684707 C 0.0 **** -0.24
4262 H 34.09149899610617 49.032378870793195 7.676371108774958 H 0.0 **** 0.06
4263 H 33.87578302829134 47.31439510475673 8.088696578774318 H 0.0 **** 0.06
4264 H 32.45340689586096 48.35789718633799 7.851647112908722 H 0.0 **** 0.06
4265 H 33.484983665437525 48.572562517304846 9.2856408272159 H 0.0 **** 0.06
4266 C 99.76377616388959 69.39135192210111 70.72044651509168 C 0.0 **** -0.24
4267 H 99.76169978791447 70.31263904210229 71.30311941378972 H 0.0 **** 0.06
4268 H 99.08752179027985 69.49687333536502 69.87108715583193 H 0.0 **** 0.06
4269 H 99.43139012470988 68.56386312951707 71.34802267823358 H 0.0 **** 0.06
4270 H 100.77219002792404 69.19119994979371 70.35949141750265 H 0.0 **** 0.06
4271 C 89.42593096020974 46.895242338621436 80.298933690902 C 0.0 **** -0.24
4272 H 89.71237598862805 46.80645821672333 79.25058897638917 H 0.0 **** 0.06
4273 H 89.37300162452655 47.94937348099167 80.57278590806789 H 0.0 **** 0.06
4274 H 90.16565202697191 46.393303577961085 80.92176282307321 H 0.0 **** 0.06
4275 H 88.45053470220265 46.431289673245416 80.44858690403953 H 0.0 **** 0.06
4276 C 91.81340116688656 23.28325715479997 99.22091662952576 C 0.0 **** -0.24
4277 H 91.6927226562253 22.23592352018349 99.49758053212872 H 0.0 **** 0.06
4278 H 90.86616083372465 23.671780600663794 98.84691095031002 H 0.0 **** 0.06
4279 H 92.57359372693034 23.367640085794335 98.4440319632991 H 0.0 **** 0.06
4280 H 92.12236312504754 23.856997066530795 100.09511513743365 H 0.0 **** 0.06
4281 C 88.85203685940172 37.91684572860663 69.67987475724809 C 0.0 **** -0.24
4282 H 87.86412071115521 38.00964112383667 70.13189434849008 H 0.0 **** 0.06
4283 H 89.4846747229154 37.29612802482501 70.31552632576401 H 0.0 **** 0.06
4284 H 89.29883509556109 38.9063420946041 69.57764802012443 H 0.0 **** 0.06
4285 H 88.7601072404662 37.45657812579168 68.6964615158289 H 0.0 **** 0.06
4286 C 41.91935668717889 76.41105973982874 10.356015702252623 C 0.0 **** -0.24
4287 H 41.09999811554525 75.98628994846709 9.774797836750796 H 0.0 **** 0.06
4288 H 42.62693082700957 75.62393989094457 10.614704877673962 H 0.0 **** 0.06
4289 H 41.522542954471305 76.85810382545716 11.268053788932654 H 0.0 **** 0.06
4290 H 42.42375867573827 77.17500886044678 9.765738440807237 H 0.0 **** 0.06
4291 C 14.806295775435018 60.05018026471231 18.42549395633219 C 0.0 **** -0.24
4292 H 14.424395399127121 60.61934384536471 19.27222638623857 H 0.0 **** 0.06
4293 H 14.909215882551734 59.00305818325717 18.708797182249043 H 0.0 **** 0.06
4294 H 15.778405882699928 60.445279535208556 18.13096304721725 H 0.0 **** 0.06
4295 H 14.111317615031624 60.1338295622827 17.589009521646233 H 0.0 **** 0.06
4296 C 3.0292040556525723 65.86482394275572 34.54851103958012 C 0.0 **** -0.24
4297 H 2.707396025185899 66.57948781944941 33.79127786730518 H 0.0 **** 0.06
4298 H 3.5178418715377777 66.39598210500023 35.365336024898795 H 0.0 **** 0.06
4299 H 3.7293106058096495 65.156827363101 34.10571809652882 H 0.0 **** 0.06
4300 H 2.161546282882851 65.32596469031142 34.93235319702532 H 0.0 **** 0.06
4301 C 73.14285500364252 30.047335574481494 30.485632148559148 C 0.0 **** -0.24
4302 H 72.3287950481652 30.65705145733613 30.094450784430762 H 0.0 **** 0.06
4303 H 72.80664108649142 29.015459391332904 30.587571912634587 H 0.0 **** 0.06
4304 H 73.44714287455093 30.428777350426508 31.460398806555872 H 0.0 **** 0.06
4305 H 73.98861582741642 30.088950973766245 29.798642479953855 H 0.0 **** 0.06
4306 C 102.36185463812348 34.51521228199441 100.63293797774105 C 0.0 **** -0.24
4307 H 101.80625931314992 33.77484444529464 101.20811381235154 H 0.0 **** 0.06
4308 H 102.34625464344154 35.469250638275035 101.15963277071722 H 0.0 **** 0.06
4309 H 101.90052646037248 34.63321862152608 99.65184733445858 H 0.0 **** 0.06
4310 H 103.39301984312365 34.183154295205156 100.5122574898324 H 0.0 **** 0.06
4311 C 59.67148038402141 63.02010735041364 6.539984426981571 C 0.0 **** -0.24
4312 H 59.28733773911506 63.056027772702066 5.520404545798323 H 0.0 **** 0.06
4313 H 59.67650752695229 61.9871683717289 6.889901326378659 H 0.0 **** 0.06
4314 H 59.034936344416906 63.62084711715329 7.189651561739945 H 0.0 **** 0.06
4315 H 60.68668019061312 63.415155688877746 6.560504439730629 H 0.0 **** 0.06
4316 C 71.75553376187804 69.92653837359947 55.65945975332903 C 0.0 **** -0.24
4317 H 72.33875141989549 70.78462023980515 55.99080025956789 H 0.0 **** 0.06
4318 H 70.96492659681758 70.26146958489986 54.987337434943186 H 0.0 **** 0.06
4319 H 71.31319972914292 69.43192583074023 56.524503700306354 H 0.0 **** 0.06
4320 H 72.4065692076571 69.22617911109131 55.13453230946641 H 0.0 **** 0.06
4321 C 44.54401105998531 71.07943078014682 63.96620486021419 C 0.0 **** -0.24
4322 H 45.46962645792135 70.82904752230095 64.48343136702769 H 0.0 **** 0.06
4323 H 44.775670580741945 71.59629757389911 63.034178235145674 H 0.0 **** 0.06
4324 H 43.93810257977552 71.72745573911908 64.60014932186493 H 0.0 **** 0.06
4325 H 43.9906527642612 70.16592881211827 63.7472008688089 H 0.0 **** 0.06
4326 C 70.66370249261973 44.213929186035045 104.53707678477281 C 0.0 **** -0.24
4327 H 69.76575368197234 43.89257739110337 104.00919334062257 H 0.0 **** 0.06
4328 H 71.28338961023738 43.345208749106746 104.76246472670124 H 0.0 **** 0.06
4329 H 70.38134935656763 44.71035733065281 105.46515584056627 H 0.0 **** 0.06
4330 H 71.22522680380723 44.908066239113 103.91052889563471 H 0.0 **** 0.06
4331 C 87.96219070937448 105.1320065249011 95.0598163673705 C 0.0 **** -0.24
4332 H 88.81450221823954 104.51999721345376 95.35493949250866 H 0.0 **** 0.06
4333 H 87.16117316448523 104.48906316956786 94.6942404768528 H 0.0 **** 0.06
4334 H 88.26528238817662 105.8207037222358 94.26984630915419 H 0.0 **** 0.06
4335 H 87.60859060454541 105.70035427304316 95.92016442306789 H 0.0 **** 0.06
4336 C 52.964780172542646 41.59619445791219 87.48280924736605 C 0.0 **** -0.24
4337 H 52.46021400529321 42.48381501437012 87.10113438879242 H 0.0 **** 0.06
4338 H 53.12564479207674 41.70316114946064 88.5558324069138 H 0.0 **** 0.06
4339 H 53.92378724085211 41.47931701421058 86.97976752655137 H 0.0 **** 0.06
4340 H 52.34625221564875 40.71851474428095 87.29371804156557 H 0.0 **** 0.06
4341 C 16.80326580225568 113.72475402076164 75.45754091648698 C 0.0 **** -0.24
4342 H 16.599188734511515 112.6809376162764 75.69635640383984 H 0.0 **** 0.06
4343 H 16.939465261771247 114.28750856473064 76.38162968845023 H 0.0 **** 0.06
4344 H 15.964860682946423 114.14060140766188 74.89853216345972 H 0.0 **** 0.06
4345 H 17.710038891478305 113.78903840446372 74.85561892696242 H 0.0 **** 0.06
4346 C 26.47694339146301 96.02558163915896 65.48979992974597 C 0.0 **** -0.24
4347 H 27.481646461066077 95.62175545658289 65.61499228493147 H 0.0 **** 0.06
4348 H 25.744746001621678 95.28102391285901 65.80338210563801 H 0.0 **** 0.06
4349 H 26.31473286325729 96.27730527230392 64.44206051386846 H 0.0 **** 0.06
4350 H 26.367857757485098 96.92214247750906 66.10000067602039 H 0.0 **** 0.06
4351 C 112.91571950617913 14.436965990908078 9.75869958470268 C 0.0 **** -0.24
4352 H 112.50864460259425 13.8368277892462 10.572665275166198 H 0.0 **** 0.06
4353 H 113.3236558833483 13.779459160204794 8.991703768797073 H 0.0 **** 0.06
4354 H 113.70590082914137 15.08238063886688 10.143558558970376 H 0.0 **** 0.06
4355 H 112.12243595123638 15.049558702237988 9.32928907405816 H 0.0 **** 0.06
4356 C 116.33593960261015 25.028107837007767 111.20048509238471 C 0.0 **** -0.24
4357 H 116.45945763721484 23.961925673291844 111.01021722854428 H 0.0 **** 0.06
4358 H 117.03046688330735 25.590221893233867 110.57544296374068 H 0.0 **** 0.06
4359 H 116.5411656534661 25.236468163750743 112.25022133130963 H 0.0 **** 0.06
4360 H 115.31319320102412 25.322526676434904 110.9643086080397 H 0.0 **** 0.06
4361 C 35.352128828297765 75.29109714311375 24.019499193761533 C 0.0 **** -0.24
4362 H 34.96431768330285 74.5480062429063 23.322943829215177 H 0.0 **** 0.06
4363 H 34.76252735704216 76.20538212696366 23.938553813585457 H 0.0 **** 0.06
4364 H 36.39317057003805 75.50644527409293 23.778891139458693 H 0.0 **** 0.06
4365 H 35.285721592990825 74.90498741926393 25.036561293200947 H 0.0 **** 0.06
4366 C 95.73478962393779 18.69932712195549 108.7704407135513 C 0.0 **** -0.24
4367 H 95.733300953244 17.61555445106535 108.65369932295857 H 0.0 **** 0.06
4368 H 96.36652871600032 18.973594582740247 109.61452007500077 H 0.0 **** 0.06
4369 H 94.71738356226626 19.04668888955149 108.94926647548473 H 0.0 **** 0.06
4370 H 96.12189581023162 19.161470785961342 107.86127730132816 H 0.0 **** 0.06
4371 C 67.94743013792436 47.18015146406099 112.69378731479947 C 0.0 **** -0.24
4372 H 67.32428942588001 47.40576054827547 111.82783395804577 H 0.0 **** 0.06
4373 H 68.54362260149543 48.055717043796676 112.9513517620891 H 0.0 **** 0.06
4374 H 68.6084412709344 46.34651744666964 112.45733530216944 H 0.0 **** 0.06
4375 H 67.31153613380798 46.91160241246027 113.53783425288535 H 0.0 **** 0.06
4376 C 40.05430456840435 54.71094015874331 79.89202247166202 C 0.0 **** -0.24
4377 H 39.14445600825735 55.12315989816386 80.32844022513456 H 0.0 **** 0.06
4378 H 40.77203630367211 54.495615644268526 80.68464884716846 H 0.0 **** 0.06
4379 H 40.48435989700863 55.434002585351436 79.19833078402971 H 0.0 **** 0.06
4380 H 39.81604707418714 53.79167208946416 79.35786285781833 H 0.0 **** 0.06
4381 C 26.219486172235293 72.58091623923664 76.08175587877759 C 0.0 **** -0.24
4382 H 25.869929385594332 72.10899148234489 75.162847770616 H 0.0 **** 0.06
4383 H 25.585054825473605 72.2700156964053 76.91244760760125 H 0.0 **** 0.06
4384 H 26.17124429363531 73.66457309884072 75.97360547142185 H 0.0 **** 0.06
4385 H 27.248482113625357 72.27954841865133 76.27631877400299 H 0.0 **** 0.06
4386 C 100.19245749118343 83.57778678662774 66.42201416067226 C 0.0 **** -0.24
4387 H 100.39321290922439 82.50768626035466 66.46127004802312 H 0.0 **** 0.06
4388 H 99.73598176832033 83.82638295116197 65.46337873069191 H 0.0 **** 0.06
4389 H 101.12804979163076 84.12705452023008 66.53215057932434 H 0.0 **** 0.06
4390 H 99.51399542060565 83.85082143615324 67.22941999819281 H 0.0 **** 0.06
4391 C 55.9447979116976 32.260678744762515 5.827996483698357 C 0.0 **** -0.24
4392 H 56.14937853641866 31.814766407239233 6.801098170257291 H 0.0 **** 0.06
4393 H 56.63174639403041 33.08960139736956 5.655996447416655 H 0.0 **** 0.06
4394 H 54.91868967441936 32.628166546726845 5.8052899453454785 H 0.0 **** 0.06
4395 H 56.07859682196274 31.508634261138923 5.049614839506944 H 0.0 **** 0.06
4396 C 72.20004948964419 51.72353867934195 86.05600260406953 C 0.0 **** -0.24
4397 H 72.20518804813972 50.65619714238801 85.83353543624543 H 0.0 **** 0.06
4398 H 71.42229230658904 52.212724368319336 85.4678986968517 H 0.0 **** 0.06
4399 H 73.16994962492626 52.15183519806683 85.80320667479884 H 0.0 **** 0.06
4400 H 72.00180748105669 51.87305169533981 87.1171429832944 H 0.0 **** 0.06
4401 C 107.19944213729775 72.33853327721533 48.83468224755819 C 0.0 **** -0.24
4402 H 107.40571157370726 72.31580265435022 49.90529855239889 H 0.0 **** 0.06
4403 H 107.1884379045481 71.3200851618956 48.44526812262666 H 0.0 **** 0.06
4404 H 107.9743942253665 72.91371860726204 48.32829302362563 H 0.0 **** 0.06
4405 H 106.22972761227783 72.80413422573048 48.661764926905704 H 0.0 **** 0.06
4406 C 5.37025967677136 60.21991360740336 42.40799775369186 C 0.0 **** -0.24
4407 H 5.8609437740651735 59.24886510687984 42.33590102632587 H 0.0 **** 0.06
4408 H 5.951204267582067 60.96128751731403 41.859334763415035 H 0.0 **** 0.06
4409 H 5.301217903577658 60.515202890976205 43.45532792225576 H 0.0 **** 0.06
4410 H 4.369390966045501 60.15347243535066 41.98203140449057 H 0.0 **** 0.06
4411 C 111.11420505989841 80.92789431347703 41.08455081523607 C 0.0 **** -0.24
4412 H 111.92507636604412 80.20012977416616 41.08761853897806 H 0.0 **** 0.06
4413 H 111.51679069858707 81.91980803635684 40.88065402118849 H 0.0 **** 0.06
4414 H 110.62186770866965 80.92761369425008 42.05759083650827 H 0.0 **** 0.06
4415 H 110.39103876878154 80.6631436084279 40.31252192832437 H 0.0 **** 0.06
4416 C 23.809428177014922 57.93013559790171 58.45192266972455 C 0.0 **** -0.24
4417 H 23.036725724865732 58.41556847128072 57.85454599079992 H 0.0 **** 0.06
4418 H 23.36583603169248 57.11634342316444 59.02602309685764 H 0.0 **** 0.06
4419 H 24.252809381426744 58.65688551974722 59.13136253063533 H 0.0 **** 0.06
4420 H 24.58026849001388 57.53094895316269 57.792008089077854 H 0.0 **** 0.06
4421 C 50.14410543250864 36.890880070527984 21.748093318799093 C 0.0 **** -0.24
4422 H 51.18626310196993 37.07338913853122 21.483673448082627 H 0.0 **** 0.06
4423 H 49.55435896435745 36.77486415629596 20.83823045288689 H 0.0 **** 0.06
4424 H 49.762156326003435 37.733366686211916 22.32333853528891 H 0.0 **** 0.06
4425 H 50.07546056128223 35.980876361042796 22.344974506929418 H 0.0 **** 0.06
4426 C 26.17238274640758 2.639048394759044 28.938900391873183 C 0.0 **** -0.24
4427 H 26.785889936210452 3.074895327966061 29.72748225235459 H 0.0 **** 0.06
4428 H 25.232085999512805 3.1872590031988466 28.86666309657403 H 0.0 **** 0.06
4429 H 25.966628854720426 1.5942753396240903 29.17459647185928 H 0.0 **** 0.06
4430 H 26.70361413310647 2.6991888175722636 27.989495706921055 H 0.0 **** 0.06
4431 C 104.58831788522869 53.031557062006186 6.594579560946528 C 0.0 **** -0.24
4432 H 103.92549551096931 52.36387678838139 6.044156526098348 H 0.0 **** 0.06
4433 H 104.00195170216153 53.63304466333341 7.288653250446146 H 0.0 **** 0.06
4434 H 105.10683933671228 53.685616733205904 5.894597181960904 H 0.0 **** 0.06
4435 H 105.31799832138844 52.44187955287822 7.150045938004723 H 0.0 **** 0.06
4436 C 109.59834990939729 34.50322753022016 89.33659767526652 C 0.0 **** -0.24
4437 H 110.08837062878199 33.93943040026707 90.13018663490564 H 0.0 **** 0.06
4438 H 110.26126885802638 34.56694454722239 88.47318779198332 H 0.0 **** 0.06
4439 H 109.36868209363358 35.50773900225029 89.69407837149947 H 0.0 **** 0.06
4440 H 108.67501491385012 34.00024160704331 89.05031882996545 H 0.0 **** 0.06
4441 C 87.47693958028918 72.0361334762371 49.98219305650744 C 0.0 **** -0.24
4442 H 87.310792420329 72.04032810072707 48.904610793997755 H 0.0 **** 0.06
4443 H 87.32289404236775 71.02850927735719 50.36846940794896 H 0.0 **** 0.06
4444 H 86.7770392985702 72.7214948664807 50.46005843087814 H 0.0 **** 0.06
4445 H 88.49843522550512 72.35353156564423 50.193067657768964 H 0.0 **** 0.06
4446 C 39.32688711818323 58.518657245479375 0.43391036454918464 C 0.0 **** -0.24
4447 H 38.99549683625194 59.487974074315275 0.0633833758344089 H 0.0 **** 0.06
4448 H 39.07826913068004 57.74662151987343 -0.2943244219172083 H 0.0 **** 0.06
4449 H 38.8275067903325 58.301300614262544 1.3784766091968947 H 0.0 **** 0.06
4450 H 40.40581181271805 58.538232592325556 0.588837107168418 H 0.0 **** 0.06
4451 C 62.95492665419794 106.95549219757794 109.21269480768908 C 0.0 **** -0.24
4452 H 63.328932831582584 107.83489084485106 108.68769918226513 H 0.0 **** 0.06
4453 H 62.61107836267242 106.21874507866818 108.48638424963792 H 0.0 **** 0.06
4454 H 62.125475275874315 107.24465398464514 109.85891063914545 H 0.0 **** 0.06
4455 H 63.75385324191945 106.52686525904721 109.81694075357794 H 0.0 **** 0.06
4456 C 100.08717329262575 24.250807472527924 77.21291141887355 C 0.0 **** -0.24
4457 H 101.15924519397055 24.258771946145956 77.01728845070176 H 0.0 **** 0.06
4458 H 99.57960223733494 23.68868281310847 76.42818373854112 H 0.0 **** 0.06
4459 H 99.71319062108259 25.274669127514215 77.22644847317025 H 0.0 **** 0.06
4460 H 99.89757243434491 23.781151831520702 78.1782564747391 H 0.0 **** 0.06
4461 C 116.39596516762512 77.60977807927421 109.185827485481 C 0.0 **** -0.24
4462 H 115.62242508446982 77.12161924217284 108.5940685974077 H 0.0 **** 0.06
4463 H 117.3207003268596 77.03571680140985 109.12110079533198 H 0.0 **** 0.06
4464 H 116.07615447177045 77.6670251649891 110.22671888615933 H 0.0 **** 0.06
4465 H 116.56538476643044 78.6165683444483 108.8034345554014 H 0.0 **** 0.06
4466 C 52.437804826659715 112.08148935319204 36.48830831559238 C 0.0 **** -0.24
4467 H 52.58164012221965 111.96118296894915 37.56287513470042 H 0.0 **** 0.06
4468 H 51.37235987551975 112.16007321452486 36.27218197388643 H 0.0 **** 0.06
4469 H 52.85229407030437 111.21982613747204 35.96685743293804 H 0.0 **** 0.06
4470 H 52.944696981571326 112.9870588934806 36.154348526406864 H 0.0 **** 0.06
4471 C 110.32830561331389 114.12306426352927 45.7978114376958 C 0.0 **** -0.24
4472 H 111.13625553206566 113.39371384803835 45.74019318773367 H 0.0 **** 0.06
4473 H 109.56075734701284 113.87421771385928 45.06449836706807 H 0.0 **** 0.06
4474 H 110.72172405039748 115.11792765217868 45.58904664844951 H 0.0 **** 0.06
4475 H 109.89481734819725 114.10716647186851 46.79805449882684 H 0.0 **** 0.06
4476 C 102.2468554715091 32.58214984132536 105.10260359167194 C 0.0 **** -0.24
4477 H 102.59186136088147 31.7954557956933 105.77364933296175 H 0.0 **** 0.06
4478 H 102.03540067850713 32.15552367861016 104.12176721825355 H 0.0 **** 0.06
4479 H 103.01973662603308 33.34417562357991 105.00908184887899 H 0.0 **** 0.06
4480 H 101.33973033205257 33.03180683548357 105.5072720684881 H 0.0 **** 0.06
4481 C 5.4416081898946445 4.968361721532375 109.15213069283081 C 0.0 **** -0.24
4482 H 5.574868882452572 5.479587980977939 108.19896846253579 H 0.0 **** 0.06
4483 H 4.399870441347481 5.048110159612719 109.46446973133114 H 0.0 **** 0.06
4484 H 6.082918942137713 5.429024895985123 109.90401696472354 H 0.0 **** 0.06
4485 H 5.70853556240912 3.9174716516847496 109.0416870979137 H 0.0 **** 0.06
4486 C 27.188939582501234 86.33812766790493 39.58892949752135 C 0.0 **** -0.24
4487 H 28.04561142478417 86.64550743704444 38.98864203893504 H 0.0 **** 0.06
4488 H 27.539823358063643 85.85515087610764 40.50150882166963 H 0.0 **** 0.06
4489 H 26.578243000924317 85.63788729393559 39.01831569228284 H 0.0 **** 0.06
4490 H 26.59318265961366 87.21347379506904 39.84600878899346 H 0.0 **** 0.06
4491 C 75.59077652480076 17.803774309587624 55.291395758524345 C 0.0 **** -0.24
4492 H 76.50241630032079 18.363149568789538 55.08091246869276 H 0.0 **** 0.06
4493 H 75.83197692949881 16.74506511706906 55.396848569466954 H 0.0 **** 0.06
4494 H 74.88611386451794 17.93649555642179 54.4714942568429 H 0.0 **** 0.06
4495 H 75.14628265125165 18.169731567471672 56.21637218403731 H 0.0 **** 0.06
4496 C 19.022162285737238 63.62788759215635 13.526536241981816 C 0.0 **** -0.24
4497 H 19.107205954402293 62.65135250807399 13.049576303128333 H 0.0 **** 0.06
4498 H 18.213093689961116 64.19052375585892 13.060066996269384 H 0.0 **** 0.06
4499 H 19.959664481993148 64.17172425341914 13.40798532812093 H 0.0 **** 0.06
4500 H 18.80933687251528 63.49706892105626 14.587622381847794 H 0.0 **** 0.06
4501 C 100.7918979793806 58.09649385782953 4.51998907628132 C 0.0 **** -0.24
4502 H 100.21452409663084 57.33957956619298 5.051900896228858 H 0.0 **** 0.06
4503 H 100.15610809610149 58.58641570746914 3.7829560145237338 H 0.0 **** 0.06
4504 H 101.63379819146954 57.62145599089075 4.01596819788449 H 0.0 **** 0.06
4505 H 101.16279614737027 58.83542541079714 5.229645769182241 H 0.0 **** 0.06
4506 C 72.74724874845754 32.85777578857335 109.67318980304809 C 0.0 **** -0.24
4507 H 73.67296602169793 33.27971377779647 110.06338946793878 H 0.0 **** 0.06
4508 H 72.01966621777817 32.76969659361555 110.48073716967079 H 0.0 **** 0.06
4509 H 72.94559789980241 31.8726114185244 109.25278207455703 H 0.0 **** 0.06
4510 H 72.34999224084208 33.511132535155184 108.89629328288696 H 0.0 **** 0.06
4511 C 96.1510332825971 67.27941736554817 63.010918824936084 C 0.0 **** -0.24
4512 H 96.09677429592293 67.02089175810482 64.06796725407293 H 0.0 **** 0.06
4513 H 95.55900871609978 68.17595452886422 62.825764783821455 H 0.0 **** 0.06
4514 H 95.75833514743266 66.45502291428915 62.41457579645038 H 0.0 **** 0.06
4515 H 97.18920747624196 67.46474142786036 62.73489108220821 H 0.0 **** 0.06
4516 C 81.86036862863935 14.67947911282323 100.54133385074547 C 0.0 **** -0.24
4517 H 81.01334985964763 15.36020467354163 100.45595304414533 H 0.0 **** 0.06
4518 H 82.67699960247967 15.179175254382102 101.06092551185355 H 0.0 **** 0.06
4519 H 82.18993342470472 14.38341465873475 99.54485408904975 H 0.0 **** 0.06
4520 H 81.55989299371114 13.79452291675662 101.10161399966799 H 0.0 **** 0.06
4521 C 69.04080846408215 22.10612775286571 25.236476676333993 C 0.0 **** -0.24
4522 H 68.64483671436093 22.393447639752118 26.21067872903967 H 0.0 **** 0.06
4523 H 68.22888357920004 21.740566818314342 24.607438382222043 H 0.0 **** 0.06
4524 H 69.78474162214084 21.320317457706437 25.364568664726747 H 0.0 **** 0.06
4525 H 69.50492654320459 22.972485092655713 24.764032609295597 H 0.0 **** 0.06
4526 C 85.27571357092552 85.90009417582101 30.525414827488532 C 0.0 **** -0.24
4527 H 84.31328555019729 85.70747936794498 30.99960341125515 H 0.0 **** 0.06
4528 H 85.80729533539022 86.67131982316596 31.082622848900428 H 0.0 **** 0.06
4529 H 85.11488071896406 86.2364487146726 29.501771183256807 H 0.0 **** 0.06
4530 H 85.86669909511147 84.98402099362497 30.51820207747656 H 0.0 **** 0.06
4531 C 48.25569644902805 53.40889883071359 49.885899707384795 C 0.0 **** -0.24
4532 H 47.82017881163881 53.17890624773819 48.913769707885905 H 0.0 **** 0.06
4533 H 48.33617472577714 52.494359085465156 50.47362011422862 H 0.0 **** 0.06
4534 H 47.62071327903129 54.12281382551496 50.40958917909623 H 0.0 **** 0.06
4535 H 49.2477229173935 53.84028794001401 49.74599622121994 H 0.0 **** 0.06
4536 C 90.78794100256744 54.34531168566671 2.8843729149324133 C 0.0 **** -0.24
4537 H 89.87576595588911 53.759200956784966 3.0011673002160677 H 0.0 **** 0.06
4538 H 90.56744915089007 55.398811179339376 3.061189827652086 H 0.0 **** 0.06
4539 H 91.17451024568794 54.21846006845076 1.8733972359319324 H 0.0 **** 0.06
4540 H 91.53261967610314 54.00383272754082 3.6039956024237654 H 0.0 **** 0.06
4541 C 38.565508171661804 31.312984473790607 53.73423921641904 C 0.0 **** -0.24
4542 H 37.543872087219825 30.9496410825343 53.84618682565065 H 0.0 **** 0.06
4543 H 39.17145734286322 30.954009443205337 54.56597984834235 H 0.0 **** 0.06
4544 H 38.56471660342311 32.40290155905336 53.728401637668526 H 0.0 **** 0.06
4545 H 38.98109454197271 30.94499672377151 52.79615875555561 H 0.0 **** 0.06
4546 C 29.54439446883839 15.190957426208968 91.74958590063525 C 0.0 **** -0.24
4547 H 28.886527436908295 14.33498718360812 91.59679545934796 H 0.0 **** 0.06
4548 H 30.564313933360665 14.917689952054275 91.48050767230771 H 0.0 **** 0.06
4549 H 29.51231280750585 15.491038816264393 92.79686803959822 H 0.0 **** 0.06
4550 H 29.212257121604864 16.01957789536209 91.12403424485817 H 0.0 **** 0.06
4551 C 40.174034598082955 10.883281779215991 71.44155327874887 C 0.0 **** -0.24
4552 H 39.38000257219292 10.543623898409123 72.10615887559561 H 0.0 **** 0.06
4553 H 39.78192839892711 10.981203058568042 70.42841843373964 H 0.0 **** 0.06
4554 H 40.98782117167784 10.157599051831028 71.44721041141437 H 0.0 **** 0.06
4555 H 40.545889795752885 11.8498407416661 71.782421998736 H 0.0 **** 0.06
4556 C 53.54380524417809 107.1337144100587 36.1524349228026 C 0.0 **** -0.24
4557 H 54.60440801515057 107.37054500421081 36.06326068576513 H 0.0 **** 0.06
4558 H 52.987131902990484 107.66945178989297 35.38357653995192 H 0.0 **** 0.06
4559 H 53.187070697297315 107.43374759250784 37.13731941848991 H 0.0 **** 0.06
4560 H 53.40030019752646 106.06067900971118 36.02513880230103 H 0.0 **** 0.06
4561 C 49.21692394585263 19.8969622970087 49.871383129628185 C 0.0 **** -0.24
4562 H 49.69179094853031 20.303722273324126 50.76457832346739 H 0.0 **** 0.06
4563 H 48.32113499447257 20.47447898914008 49.64200436476071 H 0.0 **** 0.06
4564 H 48.94383923509089 18.85640745783732 50.04733011996848 H 0.0 **** 0.06
4565 H 49.91134038640968 19.954941632564896 49.03301197750372 H 0.0 **** 0.06
4566 C 76.26883496412651 80.88068404576092 90.05517575807744 C 0.0 **** -0.24
4567 H 76.02246867771356 81.55322574576704 89.23405077931312 H 0.0 **** 0.06
4568 H 75.35318483620645 80.4329428192689 90.44351928542724 H 0.0 **** 0.06
4569 H 76.76463802338293 81.4407080828548 90.84768527582048 H 0.0 **** 0.06
4570 H 76.93308680938014 80.09575460122974 89.69437916082475 H 0.0 **** 0.06
4571 C 83.30417006141292 94.19223620945883 72.32296079709832 C 0.0 **** -0.24
4572 H 83.48828140768734 93.66664388616249 71.38616964371798 H 0.0 **** 0.06
4573 H 82.23232072083914 94.35476418293729 72.44253796758602 H 0.0 **** 0.06
4574 H 83.81782493508462 95.15310925155126 72.30732142114638 H 0.0 **** 0.06
4575 H 83.6768103745458 93.59308010476485 73.1543639371302 H 0.0 **** 0.06
4576 C 18.172816323060786 23.133378527509194 72.67431484855166 C 0.0 **** -0.24
4577 H 18.403959271806688 23.592065795118742 71.71325925436525 H 0.0 **** 0.06
4578 H 17.239794305212527 22.575064767085905 72.59624668515534 H 0.0 **** 0.06
4579 H 18.06875823880083 23.910685077423523 73.43127548373712 H 0.0 **** 0.06
4580 H 18.97885225009582 22.4570332513332 72.95693482950975 H 0.0 **** 0.06
4581 C 39.61485942258128 88.84731707376494 36.269406104450724 C 0.0 **** -0.24
4582 H 39.69577739263169 89.33217088647098 37.24171776483601 H 0.0 **** 0.06
4583 H 39.00602578755521 87.94699782595802 36.36286161022426 H 0.0 **** 0.06
4584 H 40.60947600019411 88.57763091409117 35.91378661014576 H 0.0 **** 0.06
4585 H 39.14734153303836 89.53082125239268 35.56004507163351 H 0.0 **** 0.06
4586 C 93.8653366537637 45.42349882376482 61.258401288873664 C 0.0 **** -0.24
4587 H 94.21964479128596 45.6689431899249 60.25762622567512 H 0.0 **** 0.06
4588 H 92.90967274506662 45.91764737553871 61.435674281961575 H 0.0 **** 0.06
4589 H 94.59330444380979 45.76412809265088 61.99557537815294 H 0.0 **** 0.06
4590 H 93.73817570935421 44.34519679384533 61.34462013479244 H 0.0 **** 0.06
4591 C 70.38742698630867 85.19202743125686 76.93805997101165 C 0.0 **** -0.24
4592 H 69.46644032498625 85.61474111227176 77.33988915655249 H 0.0 **** 0.06
4593 H 70.1494438653217 84.52756739036681 76.10811311316562 H 0.0 **** 0.06
4594 H 70.89925114525522 84.6298871878073 77.71984408648814 H 0.0 **** 0.06
4595 H 71.03339678103077 85.99699822308821 76.58693173286338 H 0.0 **** 0.06
4596 C 98.05684713248462 106.236358284841 33.267740017576386 C 0.0 **** -0.24
4597 H 98.79280642647481 106.3377866114406 32.47029273873079 H 0.0 **** 0.06
4598 H 98.56666522918013 106.0303548865387 34.20875492682387 H 0.0 **** 0.06
4599 H 97.37909319703368 105.4152886211927 33.03422733758623 H 0.0 **** 0.06
4600 H 97.488791878851 107.16213914743298 33.3566948569416 H 0.0 **** 0.06
4601 C 86.09170194235998 107.23832174407377 59.770288150786996 C 0.0 **** -0.24
4602 H 85.82695086869575 107.46520851591265 60.80311545419832 H 0.0 **** 0.06
4603 H 85.79941455386688 108.07085358734605 59.1298298663919 H 0.0 **** 0.06
4604 H 85.57098944436956 106.33513083905893 59.45201994017043 H 0.0 **** 0.06
4605 H 87.1670906851684 107.08272015456924 59.69635542137581 H 0.0 **** 0.06
4606 C 102.66413641383062 9.304844162299617 15.63890904803462 C 0.0 **** -0.24
4607 H 103.12199990289659 8.72633529880315 16.441797293176364 H 0.0 **** 0.06
4608 H 103.44322012512336 9.767795593149302 15.03386155676553 H 0.0 **** 0.06
4609 H 102.0274478077583 10.078615928438225 16.06755321554357 H 0.0 **** 0.06
4610 H 102.06230324244657 8.64409832906955 15.01418847147147 H 0.0 **** 0.06
4611 C 29.85787077263639 0.21673757666755478 102.12727106058185 C 0.0 **** -0.24
4612 H 29.65276298220995 -0.7806489123413485 102.51600097048328 H 0.0 **** 0.06
4613 H 29.524352180997738 0.2779746374036165 101.09074879363777 H 0.0 **** 0.06
4614 H 30.929467941190723 0.4115696049046278 102.17692981358545 H 0.0 **** 0.06
4615 H 29.326022383433354 0.9559369731241532 102.7249000524235 H 0.0 **** 0.06
4616 C 2.0105423794068997 95.90953417319082 60.717943018813145 C 0.0 **** -0.24
4617 H 2.222867580049865 96.02131443147712 61.78110487665458 H 0.0 **** 0.06
4618 H 1.3425981474660773 95.06032337670831 60.56973181986717 H 0.0 **** 0.06
4619 H 2.941318073348782 95.73933533264383 60.178621393194874 H 0.0 **** 0.06
4620 H 1.5344759472954763 96.81628108857313 60.34503319504998 H 0.0 **** 0.06
4621 C 46.4394967216878 34.82361451343115 60.46790557695322 C 0.0 **** -0.24
4622 H 46.776764336707075 33.95455349817888 61.03258731041283 H 0.0 **** 0.06
4623 H 47.00933212140821 35.70103141765543 60.77675710540344 H 0.0 **** 0.06
4624 H 45.37937640882619 34.99199847267528 60.658469881618494 H 0.0 **** 0.06
4625 H 46.59365501030618 34.64631920552222 59.40318373374334 H 0.0 **** 0.06
4626 C 77.97330941537888 76.0315597952629 17.83886518765084 C 0.0 **** -0.24
4627 H 77.43653305513948 76.87855930703032 18.266277094520262 H 0.0 **** 0.06
4628 H 78.61547150098022 75.58714023557451 18.600939477496297 H 0.0 **** 0.06
4629 H 78.58399670376215 76.37168043138198 17.002600309937975 H 0.0 **** 0.06
4630 H 77.25717794672155 75.28782927996247 17.48762783524063 H 0.0 **** 0.06
4631 C 13.61089352482108 15.607839294396626 93.9803577684172 C 0.0 **** -0.24
4632 H 12.700665027934832 15.43764313877847 93.40398253512234 H 0.0 **** 0.06
4633 H 13.981721107835114 14.656090811798379 94.3610698710961 H 0.0 **** 0.06
4634 H 13.393060683589312 16.273875669996528 94.81482425880054 H 0.0 **** 0.06
4635 H 14.365953994310644 16.06237999088262 93.34000292066537 H 0.0 **** 0.06
4636 C 80.24366825855043 50.2461068673056 40.75040106533717 C 0.0 **** -0.24
4637 H 79.19940605177709 50.428096262525855 40.496302122549565 H 0.0 **** 0.06
4638 H 80.88137521158274 50.89779660289457 40.15381976488183 H 0.0 **** 0.06
4639 H 80.49203040421156 49.20548107580123 40.54362309783525 H 0.0 **** 0.06
4640 H 80.40043950470925 50.45282838375877 41.80882249614919 H 0.0 **** 0.06
4641 C 45.714116353346554 44.58389981935565 105.84828041548784 C 0.0 **** -0.24
4642 H 45.273885347740304 43.89840570749385 105.1229876845793 H 0.0 **** 0.06
4643 H 45.215069022463815 44.46359262523157 106.8098327572776 H 0.0 **** 0.06
4644 H 45.58999122841594 45.60868064216574 105.49973899248019 H 0.0 **** 0.06
4645 H 46.7755502634953 44.36296847907818 105.95804984513978 H 0.0 **** 0.06
4646 C 47.57195261841471 106.28848007341671 75.54458432378482 C 0.0 **** -0.24
4647 H 48.61357398784776 105.97284774134147 75.4835996414935 H 0.0 **** 0.06
4648 H 46.99971136542737 105.54825056697541 76.10344044949548 H 0.0 **** 0.06
4649 H 47.161875662144865 106.38180665902965 74.53816984710991 H 0.0 **** 0.06
4650 H 47.513886488201706 107.2522253224978 76.05067660438604 H 0.0 **** 0.06
4651 C 88.24432495386901 62.840499505024106 41.04036041582381 C 0.0 **** -0.24
4652 H 88.66597576829005 62.22171454695073 40.2478045668081 H 0.0 **** 0.06
4653 H 87.29672040798243 63.263542552991986 40.70488128292942 H 0.0 **** 0.06
4654 H 88.93848970842868 63.6469642882446 41.278773648699 H 0.0 **** 0.06
4655 H 88.07643017032751 62.23086459232547 41.92702972261935 H 0.0 **** 0.06
4656 C 31.853848951078447 105.58628439066695 91.98292276133299 C 0.0 **** -0.24
4657 H 31.54297296109391 106.62848638989911 92.05310150948426 H 0.0 **** 0.06
4658 H 31.024462048439347 104.9395096074264 92.27109419811279 H 0.0 **** 0.06
4659 H 32.69910439461597 105.41348927791344 92.65040470919493 H 0.0 **** 0.06
4660 H 32.149867956855246 105.36288442684906 90.95771293014755 H 0.0 **** 0.06
4661 C 99.79395690729385 23.2146856795149 23.023360522743133 C 0.0 **** -0.24
4662 H 100.01261976868787 23.06983638229582 24.080927612588226 H 0.0 **** 0.06
4663 H 99.17105643163941 22.393876314654932 22.6656315161311 H 0.0 **** 0.06
4664 H 100.72596389614432 23.236240848984153 22.45954473004366 H 0.0 **** 0.06
4665 H 99.26464481713808 24.15750918605005 22.888329168424946 H 0.0 **** 0.06
4666 C 29.674180938751476 98.64890257293723 30.98335966072861 C 0.0 **** -0.24
4667 H 28.763971186339745 99.12182196121913 30.615022305952465 H 0.0 **** 0.06
4668 H 29.634948712414626 98.58252066119672 32.07127340764359 H 0.0 **** 0.06
4669 H 30.538251264599552 99.24374017305539 30.686960135879445 H 0.0 **** 0.06
4670 H 29.759621793402715 97.64737344373282 30.561586928414755 H 0.0 **** 0.06
4671 C 111.61519596934528 88.68757745811928 100.96218674185127 C 0.0 **** -0.24
4672 H 112.29716653921503 88.79782669150683 101.80437384794132 H 0.0 **** 0.06
4673 H 110.95257906426559 89.55186185530528 100.91560037129321 H 0.0 **** 0.06
4674 H 111.02361514500905 87.78115725922063 101.09007147896963 H 0.0 **** 0.06
4675 H 112.18858773286922 88.61894457525509 100.03686438099345 H 0.0 **** 0.06
4676 C 109.2157951797956 9.035613848973298 77.94204412373202 C 0.0 **** -0.24
4677 H 109.98793543170179 9.802689307160676 77.98731612479415 H 0.0 **** 0.06
4678 H 108.49952277587906 9.193063435865383 78.74830551071909 H 0.0 **** 0.06
4679 H 109.67319026205692 8.052245014661992 78.04910679502063 H 0.0 **** 0.06
4680 H 108.70173180154457 9.093610240316707 76.98216690321462 H 0.0 **** 0.06
4681 C 30.29065224074364 60.74035991253748 103.59083539185838 C 0.0 **** -0.24
4682 H 31.11476858902057 60.03144431307283 103.5105491114499 H 0.0 **** 0.06
4683 H 29.34739359683718 60.22339403262581 103.40976227888865 H 0.0 **** 0.06
4684 H 30.419596408922416 61.53195169418763 102.85295342606776 H 0.0 **** 0.06
4685 H 30.28171327810918 61.17387780214312 104.59088904087929 H 0.0 **** 0.06
4686 C 91.07984559886037 17.691526388581963 19.387975976699707 C 0.0 **** -0.24
4687 H 90.24961730941953 16.98561617295941 19.39656053235889 H 0.0 **** 0.06
4688 H 91.99340381446947 17.173894184595497 19.093499628141174 H 0.0 **** 0.06
4689 H 91.20687980994526 18.114737868829323 20.385201332596253 H 0.0 **** 0.06
4690 H 90.86983997118548 18.49156428718861 18.67883008101026 H 0.0 **** 0.06
4691 C 22.322155818205598 86.02523980697205 72.29451013538528 C 0.0 **** -0.24
4692 H 22.83582723369303 86.3032579760004 73.21498857568804 H 0.0 **** 0.06
4693 H 21.915928456559445 86.91948805763963 71.82155519184596 H 0.0 **** 0.06
4694 H 21.51146436580872 85.33488977990655 72.52507923228009 H 0.0 **** 0.06
4695 H 23.027546356107898 85.54394714104035 71.61628260101193 H 0.0 **** 0.06
4696 C 81.62522809475504 109.21916331627268 56.726982499764404 C 0.0 **** -0.24
4697 H 82.33240268678091 108.43310753467568 56.99290430071892 H 0.0 **** 0.06
4698 H 81.98094014129222 110.17356454915657 57.11626291438432 H 0.0 **** 0.06
4699 H 80.65047781323827 108.9908073309147 57.15657919959483 H 0.0 **** 0.06
4700 H 81.54004243790263 109.27784718958615 55.64145284627324 H 0.0 **** 0.06
4701 C 17.754459125163123 36.1901815985149 69.92893481698849 C 0.0 **** -0.24
4702 H 18.213321067038265 36.28805261078969 70.91282960462848 H 0.0 **** 0.06
4703 H 18.385616172249854 36.67691816726011 69.18501862981947 H 0.0 **** 0.06
4704 H 16.771815081338673 36.66277054285757 69.93702121952924 H 0.0 **** 0.06
4705 H 17.64844163795695 35.13399404421074 69.68124325676757 H 0.0 **** 0.06
4706 C 44.8169714481905 94.40444584481463 99.91772845569875 C 0.0 **** -0.24
4707 H 44.80118063784582 95.37225547073407 100.41869365421303 H 0.0 **** 0.06
4708 H 44.06704440970499 94.39357135076943 99.12628534758866 H 0.0 **** 0.06
4709 H 44.59599111460933 93.61835775921787 100.63998062583656 H 0.0 **** 0.06
4710 H 45.80357197891493 94.2348508947394 99.48660445306544 H 0.0 **** 0.06
4711 C 87.58212155522585 89.16457922186461 67.20564476663924 C 0.0 **** -0.24
4712 H 87.26250611193205 88.13974050015494 67.39302538643562 H 0.0 **** 0.06
4713 H 87.862387118328 89.63640379023641 68.14707756773112 H 0.0 **** 0.06
4714 H 86.7640072528896 89.72206929297104 66.7489459515225 H 0.0 **** 0.06
4715 H 88.4390140999721 89.16027065270686 66.53115411941474 H 0.0 **** 0.06
4716 C 40.97533230291296 89.65983588144357 13.920867952538629 C 0.0 **** -0.24
4717 H 41.67008213548814 90.4600903171031 13.666910390669756 H 0.0 **** 0.06
4718 H 40.70064359178636 89.7370748680932 14.973319030990297 H 0.0 **** 0.06
4719 H 41.450596920299276 88.69542925175031 13.738334587360242 H 0.0 **** 0.06
4720 H 40.080817111700014 89.74616339310663 13.304913380126635 H 0.0 **** 0.06
4721 C 113.15555805283432 30.64920834306625 33.24891080655368 C 0.0 **** -0.24
4722 H 112.58208953021386 29.751089794644713 33.021306227339295 H 0.0 **** 0.06
4723 H 112.58197493130292 31.285149185397074 33.92445777791781 H 0.0 **** 0.06
4724 H 113.36282345894254 31.1912735959844 32.32695191224741 H 0.0 **** 0.06
4725 H 114.09564353954978 30.368924903843407 33.725326072504714 H 0.0 **** 0.06
4726 C 24.922359828845458 64.9948183580916 54.09315704813714 C 0.0 **** -0.24
4727 H 24.65796011856179 64.6543643680113 55.09376475197152 H 0.0 **** 0.06
4728 H 24.792007066189456 66.07547241605153 54.03136740683169 H 0.0 **** 0.06
4729 H 24.276440103817777 64.50912038654099 53.36136596775808 H 0.0 **** 0.06
4730 H 25.9620068275363 64.74118852841067 53.88569620721096 H 0.0 **** 0.06
4731 C 29.817187897738137 57.078062894563715 24.929726401776037 C 0.0 **** -0.24
4732 H 29.429069057224496 58.09458778167368 24.988606326446785 H 0.0 **** 0.06
4733 H 30.82647910523312 57.09792325681005 24.518540565732508 H 0.0 **** 0.06
4734 H 29.172676169374938 56.48034857626433 24.285200848249247 H 0.0 **** 0.06
4735 H 29.839917390342805 56.63995147801015 25.928079437490823 H 0.0 **** 0.06
4736 C 93.49717298551383 93.20069569755518 72.23497592330025 C 0.0 **** -0.24
4737 H 94.37367207066819 92.80302694328677 72.74677656235971 H 0.0 **** 0.06
4738 H 92.8365231174063 92.37918565242461 71.95435326217654 H 0.0 **** 0.06
4739 H 93.81170611697138 93.73658174820156 71.33944590490398 H 0.0 **** 0.06
4740 H 92.96712013257249 93.88274068140672 72.89990643720543 H 0.0 **** 0.06
4741 C 58.89726955069531 105.32380177957151 18.124107520096032 C 0.0 **** -0.24
4742 H 59.82196057638953 105.64215821875518 17.643837190364334 H 0.0 **** 0.06
4743 H 58.38621596857442 106.19195862132707 18.54063472802254 H 0.0 **** 0.06
4744 H 59.126339673581725 104.61918715865812 18.923085639135827 H 0.0 **** 0.06
4745 H 58.2524066769719 104.84218636610419 17.38834839288152 H 0.0 **** 0.06
4746 C 10.61875301534944 44.46636510399746 9.543077541358784 C 0.0 **** -0.24
4747 H 11.626808187199671 44.815674503554334 9.767714384234836 H 0.0 **** 0.06
4748 H 9.94255579101689 44.76631273179302 10.343794541646702 H 0.0 **** 0.06
4749 H 10.621715039096095 43.37938446659814 9.457506930362214 H 0.0 **** 0.06
4750 H 10.2847547822319 44.90270327898256 8.601743307464673 H 0.0 **** 0.06
4751 C 106.31024860861737 35.969690144656994 27.80837150810322 C 0.0 **** -0.24
4752 H 105.69052200709376 35.82086264659864 28.692048045064098 H 0.0 **** 0.06
4753 H 107.34976632532977 36.09424659107697 28.110673573064275 H 0.0 **** 0.06
4754 H 105.97713065041518 36.86197478530528 27.276477134781373 H 0.0 **** 0.06
4755 H 106.22234608104006 35.10288072782666 27.15326803982913 H 0.0 **** 0.06
4756 C 115.93772308470176 64.61683037807546 105.3030083312492 C 0.0 **** -0.24
4757 H 114.96802610501952 64.40215600386483 105.75415437413761 H 0.0 **** 0.06
4758 H 115.84246192314029 64.61400908820752 104.2177253044913 H 0.0 **** 0.06
4759 H 116.65595366433105 63.85497951871531 105.60833790541705 H 0.0 **** 0.06
4760 H 116.283860933347 65.59543040857903 105.63529363421549 H 0.0 **** 0.06
4761 C 36.640757820581456 102.79122594614395 113.73245619273347 C 0.0 **** -0.24
4762 H 36.85693606178912 103.83864761350068 113.52344483007866 H 0.0 **** 0.06
4763 H 36.20969543612371 102.32518149574489 112.84627293312293 H 0.0 **** 0.06
4764 H 35.93258137681336 102.72440955248476 114.55849594476209 H 0.0 **** 0.06
4765 H 37.56255084872951 102.27728448420166 114.00171006862885 H 0.0 **** 0.06
4766 C 107.14330602149602 62.624715040640034 59.323914140707956 C 0.0 **** -0.24
4767 H 106.63859744917568 61.86174090495718 58.73011470548795 H 0.0 **** 0.06
4768 H 107.88821305604532 62.153181976022616 59.96402348948021 H 0.0 **** 0.06
4769 H 106.41141188761173 63.1471830208662 59.93972916017671 H 0.0 **** 0.06
4770 H 107.63307343566046 63.3366579733545 58.659722080164954 H 0.0 **** 0.06
4771 C 15.380153328681757 20.15326862388082 40.756432591242856 C 0.0 **** -0.24
4772 H 14.762963231464653 20.394124154665718 41.621523867884974 H 0.0 **** 0.06
4773 H 14.959795904084018 19.289429544899804 40.24090210660589 H 0.0 **** 0.06
4774 H 16.392885137181707 19.923493493230154 41.08562639818578 H 0.0 **** 0.06
4775 H 15.4026583473227 21.006087851275453 40.07848877728216 H 0.0 **** 0.06
4776 C 12.290711310961342 73.81254518558382 90.38767198771231 C 0.0 **** -0.24
4777 H 12.574613922057551 74.3221169683894 91.30853836235158 H 0.0 **** 0.06
4778 H 11.256684363955628 73.47332825784505 90.46348244737212 H 0.0 **** 0.06
4779 H 12.943641275806527 72.9538030272102 90.23070591291952 H 0.0 **** 0.06
4780 H 12.38669736638991 74.50037607669589 89.54685192529743 H 0.0 **** 0.06
4781 C 54.46357951169179 31.84794084598957 57.97752647096786 C 0.0 **** -0.24
4782 H 54.21869388657186 31.0096002019219 58.6309383280105 H 0.0 **** 0.06
4783 H 53.709746328966354 32.6269436900989 58.09013219296665 H 0.0 **** 0.06
4784 H 54.48371889659253 31.507015212916627 56.94277189153502 H 0.0 **** 0.06
4785 H 55.441511296619346 32.24562122279343 58.249566414050605 H 0.0 **** 0.06
4786 C 114.6814340769505 8.630930678576107 91.82488150480714 C 0.0 **** -0.24
4787 H 114.59944967268297 9.681037977390758 92.10745229738245 H 0.0 **** 0.06
4788 H 113.73907179281673 8.123828717454401 92.03568705710543 H 0.0 **** 0.06
4789 H 115.48208320721574 8.162322913744276 92.3977014905775 H 0.0 **** 0.06
4790 H 114.9045827439416 8.557502211290085 90.76034643425547 H 0.0 **** 0.06
4791 C 81.43183116495484 0.09434249246817217 102.78243729590565 C 0.0 **** -0.24
4792 H 80.95323076579061 0.6732825089511039 101.99189055859594 H 0.0 **** 0.06
4793 H 81.99930280437087 -0.7250756258687261 102.33937415349442 H 0.0 **** 0.06
4794 H 80.6697754133379 -0.31033666807661575 103.44868408934948 H 0.0 **** 0.06
4795 H 82.10490918581274 0.7385048704288693 103.34806859208979 H 0.0 **** 0.06
4796 C 39.01579697159099 56.38183883579044 62.56198509700707 C 0.0 **** -0.24
4797 H 40.024156772935385 56.08404341384202 62.27502456581925 H 0.0 **** 0.06
4798 H 38.53201715672384 56.88295185729758 61.72281296384077 H 0.0 **** 0.06
4799 H 39.06585554700868 57.06182782231307 63.411396059439255 H 0.0 **** 0.06
4800 H 38.440861048775105 55.49776115283701 62.83662899327214 H 0.0 **** 0.06
4801 C 64.16103031073655 53.74551273996141 57.24439019543695 C 0.0 **** -0.24
4802 H 63.08366475828453 53.80625444259664 57.39561132203983 H 0.0 **** 0.06
4803 H 64.58329958967386 53.00990203791466 57.92951030042417 H 0.0 **** 0.06
4804 H 64.61060375085057 54.72009283164789 57.435681481314816 H 0.0 **** 0.06
4805 H 64.36733553172536 53.44639452707045 56.2169485227966 H 0.0 **** 0.06
4806 C 78.72480949728345 101.18470678958309 25.22768786283651 C 0.0 **** -0.24
4807 H 78.76513354477731 100.17297281555699 24.822196318665952 H 0.0 **** 0.06
4808 H 78.54249282026936 101.8928652471391 24.418667925109304 H 0.0 **** 0.06
4809 H 79.67361196804427 101.41948321292818 25.710048581479747 H 0.0 **** 0.06
4810 H 77.9192748809086 101.25052815347442 25.958255058976953 H 0.0 **** 0.06
4811 C 6.95782106191588 102.4772365240699 39.03374364154516 C 0.0 **** -0.24
4812 H 6.008065309751501 102.8221041177109 38.626233816711704 H 0.0 **** 0.06
4813 H 7.251507111777968 103.11808242178498 39.8652573330384 H 0.0 **** 0.06
4814 H 7.721904766515053 102.51633971168803 38.25777588308807 H 0.0 **** 0.06
4815 H 6.851043108156816 101.45146932054689 39.38646176224918 H 0.0 **** 0.06
4816 C 31.967871843741108 49.27473105506189 68.3435301854436 C 0.0 **** -0.24
4817 H 31.916834445226158 49.6109429758034 69.37959714766521 H 0.0 **** 0.06
4818 H 31.29649854318683 48.427036781186274 68.20379000403798 H 0.0 **** 0.06
4819 H 32.98893572973958 48.97177992446842 68.11001752297486 H 0.0 **** 0.06
4820 H 31.66945688768385 50.088168055494066 67.6827036679978 H 0.0 **** 0.06
4821 C 13.824955124517999 21.023474496223372 92.8659803188907 C 0.0 **** -0.24
4822 H 14.635514896909541 20.299602885139763 92.95478210170396 H 0.0 **** 0.06
4823 H 13.882844444795694 21.73746477477775 93.68841314703585 H 0.0 **** 0.06
4824 H 12.868068770118185 20.502779175760196 92.90380700435313 H 0.0 **** 0.06
4825 H 13.912855084666575 21.553221960068868 91.9167647162217 H 0.0 **** 0.06
4826 C 24.085445735340215 116.30568591623866 54.55681451127796 C 0.0 **** -0.24
4827 H 23.211759068408256 116.95762470973739 54.53680399921939 H 0.0 **** 0.06
4828 H 24.3598565881572 116.09953895211703 55.5923009622783 H 0.0 **** 0.06
4829 H 24.91674460150675 116.79587308786888 54.050596506987915 H 0.0 **** 0.06
4830 H 23.852039112758263 115.36958978408745 54.049574585839196 H 0.0 **** 0.06
4831 C 93.35907677950809 48.37709907816361 47.74891414929735 C 0.0 **** -0.24
4832 H 93.36149961900247 49.46709394958913 47.7693909478119 H 0.0 **** 0.06
4833 H 92.78976605368865 47.999601060719414 48.59842666863427 H 0.0 **** 0.06
4834 H 94.38415159058903 48.010713895737524 47.80568124350843 H 0.0 **** 0.06
4835 H 92.90049051536334 48.03264628993395 46.82185972999697 H 0.0 **** 0.06
4836 C 82.92291151590251 2.6510035478031853 33.70401986270676 C 0.0 **** -0.24
4837 H 83.79857486781384 2.2534086437615883 33.19163923172016 H 0.0 **** 0.06
4838 H 82.02069995481088 2.323678531866065 33.18592075779634 H 0.0 **** 0.06
4839 H 82.96647475877978 3.7402514202259596 33.70583552551105 H 0.0 **** 0.06
4840 H 82.90546632016623 2.286225891203216 34.730783157276875 H 0.0 **** 0.06
4841 C 107.60793318111953 96.62604765841073 67.60493608324884 C 0.0 **** -0.24
4842 H 106.88041998867428 96.99997877694372 66.88406502920134 H 0.0 **** 0.06
4843 H 108.43276857218532 96.14961739239604 67.07369712684124 H 0.0 **** 0.06
4844 H 107.12854352235743 95.89988090896205 68.26043459382731 H 0.0 **** 0.06
4845 H 107.98947924500902 97.45730212637378 68.1990923437055 H 0.0 **** 0.06
4846 C 88.95305841323133 101.14633732671052 37.046699315747844 C 0.0 **** -0.24
4847 H 89.64874946246047 100.3224272576413 36.885959901709555 H 0.0 **** 0.06
4848 H 88.94761931245887 101.79409442368993 36.17035229785148 H 0.0 **** 0.06
4849 H 89.26533048058096 101.71903828419582 37.9204783416144 H 0.0 **** 0.06
4850 H 87.95140031170712 100.74853689421118 37.21164436004187 H 0.0 **** 0.06
4851 C 78.26430405568303 52.09848657840241 26.347090214611484 C 0.0 **** -0.24
4852 H 77.49395788132745 52.83166335854074 26.10928459454186 H 0.0 **** 0.06
4853 H 78.33397870557121 51.369910769546905 25.53835614611404 H 0.0 **** 0.06
4854 H 78.00632137016589 51.58846314799046 27.275569636806807 H 0.0 **** 0.06
4855 H 79.22295826566759 52.60390903753122 26.46515048098317 H 0.0 **** 0.06
4856 C 59.81311385807854 60.16278656428301 14.190375035007378 C 0.0 **** -0.24
4857 H 59.970585056766225 59.397392553607176 14.951485342675284 H 0.0 **** 0.06
4858 H 59.59189030821835 59.6853332738533 13.236152616816298 H 0.0 **** 0.06
4859 H 60.71368768378932 60.76931931719173 14.094569143353425 H 0.0 **** 0.06
4860 H 58.97682675346621 60.79756369534488 14.482662252231847 H 0.0 **** 0.06
4861 C 2.8814863035607914 103.48118048670395 39.2110804552498 C 0.0 **** -0.24
4862 H 2.2491377279416156 103.42402066905649 40.09740039400137 H 0.0 **** 0.06
4863 H 3.2048981565161228 104.51192594258652 39.062411010846574 H 0.0 **** 0.06
4864 H 2.31859862164967 103.14714792066914 38.34078019873348 H 0.0 **** 0.06
4865 H 3.754532766418862 102.8424890344553 39.34770076265846 H 0.0 **** 0.06
4866 C 65.09536379021807 97.79858433626228 30.99212841730082 C 0.0 **** -0.24
4867 H 65.2543978034621 96.81346013043034 31.431742452980302 H 0.0 **** 0.06
4868 H 66.05531939426643 98.22218080781522 30.694507323441258 H 0.0 **** 0.06
4869 H 64.62052332745623 98.45089477389982 31.723832929250705 H 0.0 **** 0.06
4870 H 64.45276527769153 97.7051738713744 30.116265047692423 H 0.0 **** 0.06
4871 C 0.6881348578837247 75.15542594497404 30.108948464883554 C 0.0 **** -0.24
4872 H 0.943593777557215 75.06282179806334 29.053463664014032 H 0.0 **** 0.06
4873 H 1.602562049649709 75.19208582146197 30.701785694191813 H 0.0 **** 0.06
4874 H 0.09122761444224636 74.29651028562049 30.41559418228377 H 0.0 **** 0.06
4875 H 0.11643811668313298 76.07007643179963 30.265509247148714 H 0.0 **** 0.06
4876 C 22.13769931854973 85.07149750122866 102.47698578407201 C 0.0 **** -0.24
4877 H 21.257293602896304 84.58895790684815 102.90045506692366 H 0.0 **** 0.06
4878 H 23.037009206019675 84.58982319910444 102.86231632366506 H 0.0 **** 0.06
4879 H 22.14321458545097 86.12589744068089 102.75413077069618 H 0.0 **** 0.06
4880 H 22.113279879832064 84.98131145828125 101.39104097500339 H 0.0 **** 0.06
4881 C 5.422907172980192 81.98055123863972 72.15700600563181 C 0.0 **** -0.24
4882 H 6.0537273275295505 82.715944081359 72.6559150537804 H 0.0 **** 0.06
4883 H 5.703181245373774 80.97889167296796 72.48520961719089 H 0.0 **** 0.06
4884 H 5.5568200794700235 82.06009228682447 71.07753502292061 H 0.0 **** 0.06
4885 H 4.379281590017047 82.1673114613692 72.4090639275066 H 0.0 **** 0.06
4886 C 87.9555450101144 15.530490532271898 88.16324636756133 C 0.0 **** -0.24
4887 H 88.17687355509594 14.65600238192367 88.77625060563531 H 0.0 **** 0.06
4888 H 88.87492362985782 15.893572666523525 87.70400212301519 H 0.0 **** 0.06
4889 H 87.52711443977753 16.31251605206947 88.78930246546201 H 0.0 **** 0.06
4890 H 87.24342931170659 15.256843295273995 87.38432889956016 H 0.0 **** 0.06
4891 C 39.837389512140135 110.11088335208599 27.05041346386509 C 0.0 **** -0.24
4892 H 39.54550048891616 110.80597406603863 27.83816958707066 H 0.0 **** 0.06
4893 H 40.925117329897716 110.07448608789511 26.98364185884583 H 0.0 **** 0.06
4894 H 39.424626004078334 110.44665305572576 26.098865785476605 H 0.0 **** 0.06
4895 H 39.45347074598641 109.11783076744261 27.282492911656476 H 0.0 **** 0.06
4896 C 50.430664212076785 81.49964598400257 54.698851245829786 C 0.0 **** -0.24
4897 H 50.88315726778478 80.59423311449311 55.102112302443466 H 0.0 **** 0.06
4898 H 50.21925200070187 81.35974869015902 53.638410945849614 H 0.0 **** 0.06
4899 H 51.118493061560706 82.33667062351788 54.82478486957617 H 0.0 **** 0.06
4900 H 49.50233442135043 81.70990038174139 55.22920943195016 H 0.0 **** 0.06
4901 C 88.14415707024187 106.2698283984717 8.286950483109933 C 0.0 **** -0.24
4902 H 88.01162125146465 106.48872147360777 7.226696206199932 H 0.0 **** 0.06
4903 H 88.74327719819627 105.36594300243553 8.398898018363298 H 0.0 **** 0.06
4904 H 87.16966378746787 106.11951959228429 8.75108413155408 H 0.0 **** 0.06
4905 H 88.65163147892736 107.10550542262447 8.768962524498932 H 0.0 **** 0.06
4906 C 71.71012452942514 94.03875034625335 92.7317430718472 C 0.0 **** -0.24
4907 H 72.14870564999148 93.21761714842307 92.16457391851193 H 0.0 **** 0.06
4908 H 71.78010832845038 93.8206342387939 93.79812137516026 H 0.0 **** 0.06
4909 H 70.66277134226974 94.1546320103439 92.4523191519331 H 0.0 **** 0.06
4910 H 72.249040076294 94.96056191375152 92.51384537533662 H 0.0 **** 0.06
4911 C 35.53725831348504 41.655709148896875 100.16451034029689 C 0.0 **** -0.24
4912 H 36.00985315257634 40.7951741441412 99.69034199073019 H 0.0 **** 0.06
4913 H 35.17334153010239 42.33858873270559 99.39682094065259 H 0.0 **** 0.06
4914 H 36.264562680038296 42.16891598796028 100.7934785870203 H 0.0 **** 0.06
4915 H 34.70092809601056 41.318801397963675 100.77720105677022 H 0.0 **** 0.06
4916 C 22.59908120483388 60.18349795472034 65.92744746302395 C 0.0 **** -0.24
4917 H 22.59424710474366 61.00486432555658 66.64443276152696 H 0.0 **** 0.06
4918 H 21.82439335629776 59.46477015930617 66.19346818111308 H 0.0 **** 0.06
4919 H 23.57299691384881 59.6926904443641 65.94454241226487 H 0.0 **** 0.06
4920 H 22.406933784068713 60.57263926490097 64.92744026806213 H 0.0 **** 0.06
4921 C 13.856869346276113 111.51004880098816 116.13383653808293 C 0.0 **** -0.24
4922 H 13.646498674776922 111.01949843562382 117.08432404332983 H 0.0 **** 0.06
4923 H 13.433244490782755 110.92146064405785 115.31946562371992 H 0.0 **** 0.06
4924 H 14.935176846449139 111.59433783530892 115.99952999802332 H 0.0 **** 0.06
4925 H 13.412068240385423 112.50492770507839 116.1328982337439 H 0.0 **** 0.06
4926 C 98.00755213391159 65.4596886529842 59.909792813319136 C 0.0 **** -0.24
4927 H 97.43726663119728 66.33308995149255 59.592932271514464 H 0.0 **** 0.06
4928 H 97.33614705057525 64.73870936549926 60.37825215991621 H 0.0 **** 0.06
4929 H 98.77037651387744 65.7640481966788 60.62550932307921 H 0.0 **** 0.06
4930 H 98.48400256495555 65.00329012441574 59.04261042814979 H 0.0 **** 0.06
4931 C 9.0496627828534 62.12406142960523 6.773407048306055 C 0.0 **** -0.24
4932 H 8.400658730501682 61.2798660098913 6.543340268426396 H 0.0 **** 0.06
4933 H 9.53471259442146 62.469229776730295 5.859490450353949 H 0.0 **** 0.06
4934 H 9.807633418351319 61.814331482280515 7.492674608433715 H 0.0 **** 0.06
4935 H 8.45572612308613 62.93381282235662 7.198052701576691 H 0.0 **** 0.06
4936 C 58.30074141960401 23.859399782724054 50.20272943521478 C 0.0 **** -0.24
4937 H 58.78588947878194 24.376514164781298 51.03120701649618 H 0.0 **** 0.06
4938 H 57.52832923924842 23.196295800214273 50.59100052357049 H 0.0 **** 0.06
4939 H 59.04153662541103 23.274993191506226 49.656839907776586 H 0.0 **** 0.06
4940 H 57.85001996728252 24.591026364664543 49.53264015441811 H 0.0 **** 0.06
4941 C 100.98171922454179 66.04020453597244 71.58924667976811 C 0.0 **** -0.24
4942 H 100.75476090764425 65.0088263963834 71.85938188276333 H 0.0 **** 0.06
4943 H 100.20590724149238 66.69740812292125 71.9843951131125 H 0.0 **** 0.06
4944 H 101.0173089803229 66.13199199178953 70.50325706039501 H 0.0 **** 0.06
4945 H 101.94676039617909 66.3219478802196 72.0100473098014 H 0.0 **** 0.06
4946 C 20.510021542558178 70.2145228856761 108.26881851562845 C 0.0 **** -0.24
4947 H 20.841250338345276 69.18416384432047 108.13370085036985 H 0.0 **** 0.06
4948 H 19.44167319326135 70.2823610703623 108.06237293241847 H 0.0 **** 0.06
4949 H 21.054620942114582 70.863139920279 107.58240579563923 H 0.0 **** 0.06
4950 H 20.702480406907085 70.52615599007609 109.29483473733899 H 0.0 **** 0.06
4951 C 43.16691462697842 53.85801872368897 99.55530362099228 C 0.0 **** -0.24
4952 H 43.49001518545871 52.818967906318 99.48952818865754 H 0.0 **** 0.06
4953 H 42.12308819861599 53.894252155090896 99.86582486852916 H 0.0 **** 0.06
4954 H 43.27188725221183 54.33317404104769 98.579652980914 H 0.0 **** 0.06
4955 H 43.78302790186725 54.38444037092665 100.28412708060898 H 0.0 **** 0.06
4956 C 14.133323260276114 52.50310859350637 69.13349258908707 C 0.0 **** -0.24
4957 H 13.7361887014618 52.991179960354884 68.24338840705951 H 0.0 **** 0.06
4958 H 14.282448874617899 53.245136754163326 69.91852175032182 H 0.0 **** 0.06
4959 H 15.08547693803689 52.03094369787942 68.89457301177896 H 0.0 **** 0.06
4960 H 13.427732718198001 51.74654726464391 69.477332565165 H 0.0 **** 0.06
4961 C 92.26643832957873 113.2022179755428 96.1360064001473 C 0.0 **** -0.24
4962 H 92.94453064956187 112.87160880289966 96.92313941300097 H 0.0 **** 0.06
4963 H 92.0116391602408 114.25042121145665 96.29316027113813 H 0.0 **** 0.06
4964 H 91.3591601405414 112.59960342557457 96.1613813833433 H 0.0 **** 0.06
4965 H 92.75184294630637 113.0877572161969 95.16719062165535 H 0.0 **** 0.06
4966 C 7.726107854751092 53.54711699096964 100.77878217177533 C 0.0 **** -0.24
4967 H 8.740643577146173 53.58432590577672 100.38229419412397 H 0.0 **** 0.06
4968 H 7.398001020928774 54.55586075835174 101.03063116262561 H 0.0 **** 0.06
4969 H 7.707663962365885 52.924328508894746 101.67280356892866 H 0.0 **** 0.06
4970 H 7.058706158366789 53.12387212401677 100.02724255386454 H 0.0 **** 0.06
4971 C 24.28614554921409 98.2593302455592 2.724837690080591 C 0.0 **** -0.24
4972 H 24.28942491353947 97.41812575860345 3.4166860238605636 H 0.0 **** 0.06
4973 H 25.072316798077715 98.96240844848438 3.002680917698399 H 0.0 **** 0.06
4974 H 23.318782746926885 98.76113511866129 2.767076507407211 H 0.0 **** 0.06
4975 H 24.46370265356029 97.89756670096813 1.71180876244685 H 0.0 **** 0.06
4976 C 18.898757530588398 79.74740900962635 62.901519013546135 C 0.0 **** -0.24
4977 H 19.10646173038873 80.70461671680985 63.38109738076287 H 0.0 **** 0.06
4978 H 18.01381497685111 79.29977230825637 63.35273954429363 H 0.0 **** 0.06
4979 H 19.752707006235312 79.08220742032049 63.03544135746051 H 0.0 **** 0.06
4980 H 18.725014540735344 79.90504997634886 61.837184174562935 H 0.0 **** 0.06
4981 C 75.32062491376041 105.06090819653784 92.36909872918878 C 0.0 **** -0.24
4982 H 75.03336263978213 104.36720976427233 93.15891693879351 H 0.0 **** 0.06
4983 H 75.72113585753254 105.9722329733965 92.81482194676246 H 0.0 **** 0.06
4984 H 74.44686871164356 105.304678769149 91.76490922099336 H 0.0 **** 0.06
4985 H 76.08127873507271 104.59946713611711 91.7391527856706 H 0.0 **** 0.06
4986 C 20.142439118177375 29.93445671897144 70.88137214431552 C 0.0 **** -0.24
4987 H 20.94227275754897 30.56875371285446 70.49864578789288 H 0.0 **** 0.06
4988 H 20.511719145272345 28.91477435448826 70.99671588770386 H 0.0 **** 0.06
4989 H 19.306244968173004 29.9422539892606 70.18171969377377 H 0.0 **** 0.06
4990 H 19.811164544851174 30.312355856263252 71.84796269442083 H 0.0 **** 0.06
4991 C 27.691729996469462 44.41048130105381 116.07432062589143 C 0.0 **** -0.24
4992 H 27.63777537806027 43.38029920879912 116.42601468045973 H 0.0 **** 0.06
4993 H 26.89549032416619 44.59056270694468 115.3514872537072 H 0.0 **** 0.06
4994 H 28.65876017572083 44.582266971703504 115.60058300010527 H 0.0 **** 0.06
4995 H 27.576277262063968 45.08944821069415 116.92001126032949 H 0.0 **** 0.06
4996 C 13.658766550182605 4.239800084434108 45.700306625107004 C 0.0 **** -0.24
4997 H 13.310170419313948 4.875895101767668 44.88693228989047 H 0.0 **** 0.06
4998 H 12.805626745734543 3.90125168744882 46.28881955046208 H 0.0 **** 0.06
4999 H 14.33805336790951 4.8047351793970705 46.33813550709701 H 0.0 **** 0.06
5000 H 14.181215667772648 3.3773183691227757 45.28733915297855 H 0.0 **** 0.06
5001 C 20.397816738407812 69.89899109787504 21.25484756267815 C 0.0 **** -0.24
5002 H 20.93911203313553 69.29667453147962 21.984890822050943 H 0.0 **** 0.06
5003 H 20.838816943694837 70.89542708200037 21.208488143491962 H 0.0 **** 0.06
5004 H 19.351735105308308 69.97734613068431 21.55201705602269 H 0.0 **** 0.06
5005 H 20.46282075622932 69.4271077054417 20.274403525108454 H 0.0 **** 0.06
5006 C 6.17149288296298 89.25548403832957 32.984372401452646 C 0.0 **** -0.24
5007 H 7.205500459001726 88.93619752896166 33.11255738754164 H 0.0 **** 0.06
5008 H 5.70511954708337 88.66485566661535 32.195317236833795 H 0.0 **** 0.06
5009 H 6.148681570658738 90.31108746337335 32.71097872353712 H 0.0 **** 0.06
5010 H 5.627357575693168 89.1099942178393 33.917937870496395 H 0.0 **** 0.06
5011 C 80.93702005332455 10.920958169366017 29.192448748131554 C 0.0 **** -0.24
5012 H 81.87750307337132 10.524246465957603 28.807550591681576 H 0.0 **** 0.06
5013 H 80.11676134644043 10.273177187682037 28.88388369346346 H 0.0 **** 0.06
5014 H 80.77784263925253 11.923900036864609 28.79807830236531 H 0.0 **** 0.06
5015 H 80.97950236777228 10.960379559780549 30.28038813363417 H 0.0 **** 0.06
5016 C 61.518925595193906 39.62233073181329 64.97824457868722 C 0.0 **** -0.24
5017 H 62.256905115547625 38.87990376786922 65.28307638916846 H 0.0 **** 0.06
5018 H 61.874906782051596 40.14454870577467 64.08975102708806 H 0.0 **** 0.06
5019 H 61.370584333453365 40.33879332878689 65.78615248110705 H 0.0 **** 0.06
5020 H 60.57551540445087 39.125225256494275 64.75462600180086 H 0.0 **** 0.06
5021 C 93.05600312169494 45.98073636283223 102.35976746953355 C 0.0 **** -0.24
5022 H 92.0225804456625 46.32447579174803 102.29612893634351 H 0.0 **** 0.06
5023 H 93.54329173385744 46.115779738736634 101.39408839895577 H 0.0 **** 0.06
5024 H 93.07188871530943 44.925578364031054 102.63188359355814 H 0.0 **** 0.06
5025 H 93.58400992682186 46.56006274574983 103.11748492796798 H 0.0 **** 0.06
5026 C 86.58997731898558 18.294062133492105 95.13731764123287 C 0.0 **** -0.24
5027 H 85.80456009659645 18.948624650169023 94.75807797438776 H 0.0 **** 0.06
5028 H 86.14516854158512 17.36794081736221 95.50152559071526 H 0.0 **** 0.06
5029 H 87.11434299420694 18.791451646079395 95.95327308046447 H 0.0 **** 0.06
5030 H 87.29296671447025 18.070024070410028 94.33565576721998 H 0.0 **** 0.06
5031 C 85.80848158549503 11.056708269229336 15.91377102653908 C 0.0 **** -0.24
5032 H 85.92018678421277 11.230147573693028 16.983647032805152 H 0.0 **** 0.06
5033 H 86.20102510641539 10.07182255429251 15.662007960251685 H 0.0 **** 0.06
5034 H 86.36023097059325 11.819390665371753 15.36266010802484 H 0.0 **** 0.06
5035 H 84.75299360013128 11.107300170010223 15.645220148189509 H 0.0 **** 0.06
5036 C 33.79251234996997 67.67789061432072 87.3015303707362 C 0.0 **** -0.24
5037 H 32.78623106961783 67.40948252630824 86.98036837074795 H 0.0 **** 0.06
5038 H 33.740698246122435 68.5099408395366 88.00455437628432 H 0.0 **** 0.06
5039 H 34.384359425769816 67.97079034870217 86.43412287075924 H 0.0 **** 0.06
5040 H 34.25881565877421 66.81993955950196 87.78696959347849 H 0.0 **** 0.06
5041 C 49.32009476733617 18.25979527625674 21.370642387639606 C 0.0 **** -0.24
5042 H 48.38013031362158 18.730527093336576 21.656901513691395 H 0.0 **** 0.06
5043 H 49.36801309249205 17.257548503736302 21.795159929022958 H 0.0 **** 0.06
5044 H 50.15289100334144 18.85391813079471 21.74540546355138 H 0.0 **** 0.06
5045 H 49.378632730321215 18.197957394061348 20.28372409273055 H 0.0 **** 0.06
5046 C 2.9194298955726694 12.361656242387639 58.76923726529474 C 0.0 **** -0.24
5047 H 2.4680154389222295 13.170135019772143 58.19456867013776 H 0.0 **** 0.06
5048 H 3.764804001889754 11.950580594141009 58.215932200391485 H 0.0 **** 0.06
5049 H 2.1795322157738894 11.578310334521476 58.93736712455864 H 0.0 **** 0.06
5050 H 3.266054980185533 12.746563450313037 59.72787453245986 H 0.0 **** 0.06
5051 C 46.64518717746006 60.0312650569517 63.03217768033204 C 0.0 **** -0.24
5052 H 47.01450588284166 61.04124781381402 63.21176756164226 H 0.0 **** 0.06
5053 H 46.97160704112838 59.693833997257535 62.0485897058914 H 0.0 **** 0.06
5054 H 45.55524812161562 60.03138418134926 63.07427163034913 H 0.0 **** 0.06
5055 H 47.0371849131154 59.360428749672614 63.79626887611971 H 0.0 **** 0.06
5056 C 28.187392581286147 62.222988987177814 110.5670691946383 C 0.0 **** -0.24
5057 H 27.953508477396042 61.21680419185739 110.91427133049552 H 0.0 **** 0.06
5058 H 28.10391848160961 62.260915195009005 109.4806545971769 H 0.0 **** 0.06
5059 H 29.204684931653702 62.4823919235734 110.86280124308448 H 0.0 **** 0.06
5060 H 27.488597585292666 62.9325949948952 111.01017622263885 H 0.0 **** 0.06
5061 C 49.68862248800053 25.812323260907128 30.55977767019766 C 0.0 **** -0.24
5062 H 50.05950048459829 24.799210854843217 30.40879538423374 H 0.0 **** 0.06
5063 H 48.81131239138375 25.786021790162884 31.207716952434197 H 0.0 **** 0.06
5064 H 49.417096448321786 26.24828407863007 29.59747738464128 H 0.0 **** 0.06
5065 H 50.46681788499467 26.417953126639617 31.026218944042256 H 0.0 **** 0.06
5066 C 50.99154804660179 86.71900958252542 62.903980348789894 C 0.0 **** -0.24
5067 H 51.48089314804082 85.77967252829666 62.647478483878054 H 0.0 **** 0.06
5068 H 51.19734969896396 87.45944153413674 62.12975151844608 H 0.0 **** 0.06
5069 H 51.371360457928574 87.07736296218633 63.86035439051546 H 0.0 **** 0.06
5070 H 49.915487230375675 86.55951443081355 62.976149648685144 H 0.0 **** 0.06
5071 C 93.0393382205385 87.53403547926706 18.126610614143345 C 0.0 **** -0.24
5072 H 92.44252237229418 86.65943916668795 18.384595251529277 H 0.0 **** 0.06
5073 H 93.32472499116298 88.06095477298896 19.03799445624614 H 0.0 **** 0.06
5074 H 92.45520260438036 88.1982599927212 17.48960327678992 H 0.0 **** 0.06
5075 H 93.9371350477096 87.21760025256384 17.59417690007359 H 0.0 **** 0.06
5076 C 99.3465530622351 21.482852060061163 70.27789993798069 C 0.0 **** -0.24
5077 H 98.61827398714595 21.59955750098439 69.47490838450108 H 0.0 **** 0.06
5078 H 98.86062985155496 21.036180522722844 71.14571683889358 H 0.0 **** 0.06
5079 H 99.74716187422419 22.459466475952553 70.54882576223878 H 0.0 **** 0.06
5080 H 100.15703482558015 20.836767512377122 69.94214858379752 H 0.0 **** 0.06
5081 C 12.831985850751437 56.135428441188445 4.336355659266175 C 0.0 **** -0.24
5082 H 13.347380813492464 55.51304554367255 3.6044488618806554 H 0.0 **** 0.06
5083 H 11.754411054736067 56.0184880847061 4.217328225567087 H 0.0 **** 0.06
5084 H 13.10432531211086 57.179587871411734 4.181706760349499 H 0.0 **** 0.06
5085 H 13.122749371778639 55.828890361747945 5.3414372383114 H 0.0 **** 0.06
5086 C 70.15153693770031 7.038493367895626 50.7929036418496 C 0.0 **** -0.24
5087 H 71.17484379851643 6.75051351699102 50.552219960537116 H 0.0 **** 0.06
5088 H 69.61196653604162 7.264725185728935 49.87297704729758 H 0.0 **** 0.06
5089 H 70.16440652722147 7.9205511398689055 51.43303676682196 H 0.0 **** 0.06
5090 H 69.65562843140083 6.218891897627088 51.313271943201386 H 0.0 **** 0.06
5091 C 70.02753404756129 103.53305356603741 98.47276849134954 C 0.0 **** -0.24
5092 H 70.0634516460994 102.45653483262126 98.30198096115521 H 0.0 **** 0.06
5093 H 69.87182911776262 103.72694996140271 99.53484439688938 H 0.0 **** 0.06
5094 H 69.20529121780413 103.96448827430433 97.90087352265425 H 0.0 **** 0.06
5095 H 70.96760175835385 103.98280406159714 98.15481865621939 H 0.0 **** 0.06
5096 C 0.6635187226913501 12.46346112363608 66.62831148055156 C 0.0 **** -0.24
5097 H 1.569608817135098 12.68340151398914 67.19413567019339 H 0.0 **** 0.06
5098 H 0.42229706296997094 11.405342382947453 66.72552648713292 H 0.0 **** 0.06
5099 H 0.8247055339207048 12.70525365127557 65.57741320141801 H 0.0 **** 0.06
5100 H -0.16070874978587923 13.061964306068262 67.01575044886621 H 0.0 **** 0.06
5101 C 16.956310596446162 58.748110548711274 63.45816200750068 C 0.0 **** -0.24
5102 H 17.851330719037108 58.291286143090495 63.034481143212396 H 0.0 **** 0.06
5103 H 16.103560086774966 58.54417503022432 62.811167575068104 H 0.0 **** 0.06
5104 H 17.10289187210947 59.82453847302633 63.540227529460786 H 0.0 **** 0.06
5105 H 16.770595990686246 58.330524992715134 64.4474700104094 H 0.0 **** 0.06
5106 C 37.61775862973686 78.39316815251863 37.392612935902406 C 0.0 **** -0.24
5107 H 37.97146322587462 79.25686691328576 37.95576875965122 H 0.0 **** 0.06
5108 H 38.08013109152481 78.38911938419946 36.40563508948617 H 0.0 **** 0.06
5109 H 36.53405688443964 78.44730168412707 37.28686286412898 H 0.0 **** 0.06
5110 H 37.88639957484968 77.47926408352316 37.92316114776489 H 0.0 **** 0.06
5111 C 74.0797616528294 61.49474268361422 115.92867373096067 C 0.0 **** -0.24
5112 H 73.06988685192067 61.16573470253758 116.17398090537137 H 0.0 **** 0.06
5113 H 74.15131714491616 61.67814855910905 114.85586006883617 H 0.0 **** 0.06
5114 H 74.79262912543362 60.720454394123266 116.21299854891672 H 0.0 **** 0.06
5115 H 74.30416755684445 62.412928535190815 116.47044086701555 H 0.0 **** 0.06
5116 C 27.65928774618314 39.78103302389266 114.1558716773294 C 0.0 **** -0.24
5117 H 27.039851493226223 39.145795141487454 114.79028055137167 H 0.0 **** 0.06
5118 H 27.303828254613933 39.72100620864265 113.12710187347585 H 0.0 **** 0.06
5119 H 28.69400045377816 39.4425288031309 114.20386580895172 H 0.0 **** 0.06
5120 H 27.59681659075102 40.81159938273251 114.50307508770607 H 0.0 **** 0.06
5121 C 30.284682970846518 82.19809114635063 61.58030090882164 C 0.0 **** -0.24
5122 H 31.204145941896968 82.78309174188354 61.62169155806046 H 0.0 **** 0.06
5123 H 30.21623030477741 81.69887183999646 60.61308616645715 H 0.0 **** 0.06
5124 H 29.427966202069854 82.85872456541165 61.710630442694594 H 0.0 **** 0.06
5125 H 30.293303655934324 81.45254736863234 62.37492980371351 H 0.0 **** 0.06
5126 C 93.08833248254271 103.06707331271707 26.583322147874526 C 0.0 **** -0.24
5127 H 92.3263976781679 103.80605782619341 26.831344750114326 H 0.0 **** 0.06
5128 H 92.82207223786477 102.10774570513715 27.0279321274798 H 0.0 **** 0.06
5129 H 94.05212016070388 103.39389123529423 26.972806783145728 H 0.0 **** 0.06
5130 H 93.15137447337142 102.9607479450953 25.50014967112807 H 0.0 **** 0.06
5131 C 81.06614041421017 25.294880638584544 22.213639091176084 C 0.0 **** -0.24
5132 H 80.54791787207256 25.962949406785242 22.9016103749219 H 0.0 **** 0.06
5133 H 82.12052064576889 25.567737510208104 22.16822513252623 H 0.0 **** 0.06
5134 H 80.62407164032135 25.382726787089325 21.221364835661166 H 0.0 **** 0.06
5135 H 80.97112195241561 24.26664764405774 22.56555738328372 H 0.0 **** 0.06
5136 C 49.25150629663722 21.791794460194637 76.87080887271438 C 0.0 **** -0.24
5137 H 49.56406004630182 22.828531253546203 76.7475168713359 H 0.0 **** 0.06
5138 H 50.03852572056107 21.13013356092 76.50836539771424 H 0.0 **** 0.06
5139 H 48.33920565620582 21.617787786798544 76.2998621060257 H 0.0 **** 0.06
5140 H 49.06517055936928 21.591974291600252 77.92589031204716 H 0.0 **** 0.06
5141 C 80.85578373883976 29.409276840326072 86.61224527438861 C 0.0 **** -0.24
5142 H 81.12925074407437 30.129962918747992 85.8423230237915 H 0.0 **** 0.06
5143 H 80.1903622952822 29.88286086435056 87.33337728842298 H 0.0 **** 0.06
5144 H 81.75576915771714 29.061495235372035 87.12030946485322 H 0.0 **** 0.06
5145 H 80.34812983613341 28.560851844815375 86.15191866766094 H 0.0 **** 0.06
5146 C 2.8087202582212853 62.76664450042387 95.61600216147735 C 0.0 **** -0.24
5147 H 2.6048154017300362 61.960273187291385 96.32072274433094 H 0.0 **** 0.06
5148 H 2.0182675676635995 63.51462210475483 95.68239528628212 H 0.0 **** 0.06
5149 H 2.845653376841028 62.36424645994504 94.60378197099959 H 0.0 **** 0.06
5150 H 3.766732807323308 63.228299451280414 95.85881429060038 H 0.0 **** 0.06
5151 C 37.01934595179034 63.02100854443767 32.791352823079364 C 0.0 **** -0.24
5152 H 36.38107300246952 62.912190485966086 33.668521147768075 H 0.0 **** 0.06
5153 H 36.55527582769878 63.71323777572969 32.08794352002221 H 0.0 **** 0.06
5154 H 37.149438811379014 62.05048108149955 32.31330866763764 H 0.0 **** 0.06
5155 H 37.99197378166224 63.40943429055333 33.095260005556696 H 0.0 **** 0.06
5156 C 95.94421197566345 14.582499889928389 56.34241253202183 C 0.0 **** -0.24
5157 H 96.01515675116713 15.65268914512102 56.53519927297733 H 0.0 **** 0.06
5158 H 96.6772841551456 14.299819417143155 55.5867016662568 H 0.0 **** 0.06
5159 H 94.94197087019464 14.343413633887202 55.98340607642303 H 0.0 **** 0.06
5160 H 96.14006069769107 14.034154773012272 57.26375007302929 H 0.0 **** 0.06
5161 C 91.31087770470918 64.67133426218885 82.67239809142643 C 0.0 **** -0.24
5162 H 91.41015185671247 65.47007017179214 83.40737873782413 H 0.0 **** 0.06
5163 H 90.26791491245987 64.35934172014686 82.61375289600207 H 0.0 **** 0.06
5164 H 91.92757583566913 63.823356296384475 82.97299557183692 H 0.0 **** 0.06
5165 H 91.63910855661831 65.0313071077644 81.69788797923363 H 0.0 **** 0.06
5166 C 90.76988657156599 20.906865573922005 77.64877805175962 C 0.0 **** -0.24
5167 H 89.94529565269178 20.22237908093649 77.44898305833948 H 0.0 **** 0.06
5168 H 90.47280586761087 21.92167059280891 77.38192816234681 H 0.0 **** 0.06
5169 H 91.63733520902557 20.613686201331916 77.05703679935834 H 0.0 **** 0.06
5170 H 91.02396159882102 20.86875920435432 78.70818532224948 H 0.0 **** 0.06
5171 C 36.764219515462116 94.54809642728279 12.938729114574642 C 0.0 **** -0.24
5172 H 37.39861035529145 94.87224761828972 12.113306025293753 H 0.0 **** 0.06
5173 H 36.41632098485769 93.5325128175663 12.750276200124858 H 0.0 **** 0.06
5174 H 35.90755331621267 95.21587393839252 13.023222408300825 H 0.0 **** 0.06
5175 H 37.33623312189701 94.57042895287998 13.866418539674015 H 0.0 **** 0.06
5176 C 105.41202670413327 16.930342704165078 87.009365123208 C 0.0 **** -0.24
5177 H 104.97122560671994 15.98372330465456 87.32210475281192 H 0.0 **** 0.06
5178 H 104.6608635656959 17.525935575844798 86.48994036907743 H 0.0 **** 0.06
5179 H 106.25015220573863 16.73725802822866 86.34031962883978 H 0.0 **** 0.06
5180 H 105.76488707062839 17.473828071249415 87.88590273720274 H 0.0 **** 0.06
5181 C 31.795939852225274 61.289318621049766 85.02472661173672 C 0.0 **** -0.24
5182 H 31.057557809727953 62.03812194476564 84.73939616817117 H 0.0 **** 0.06
5183 H 31.358294567669958 60.60633519432195 85.75263401950318 H 0.0 **** 0.06
5184 H 32.66327919790757 61.782910769852656 85.46474854097795 H 0.0 **** 0.06
5185 H 32.10599901660797 60.72976752699666 84.14181048206154 H 0.0 **** 0.06
5186 C 28.726092521687747 89.14607751182103 54.18306289683767 C 0.0 **** -0.24
5187 H 27.791133033755898 88.69454431191963 54.51573469514585 H 0.0 **** 0.06
5188 H 28.778571759286308 90.17503915358583 54.537975278249235 H 0.0 **** 0.06
5189 H 28.768690690535095 89.13424602816605 53.09399018424932 H 0.0 **** 0.06
5190 H 29.566159280781505 88.5789729542409 54.585384023523716 H 0.0 **** 0.06
5191 C 38.6331324320775 12.775343352812058 63.75714636318344 C 0.0 **** -0.24
5192 H 38.13307323515909 12.547211299224188 64.69859766315699 H 0.0 **** 0.06
5193 H 39.29480723001012 11.951872233689357 63.48969598454602 H 0.0 **** 0.06
5194 H 39.21660632182267 13.689177382750131 63.86798198259703 H 0.0 **** 0.06
5195 H 37.88620402671603 12.91256029259381 62.974822598874596 H 0.0 **** 0.06
5196 C 18.07577138959161 72.31058052502078 105.94243866571239 C 0.0 **** -0.24
5197 H 18.76008641487921 73.15780065567444 105.99019823044304 H 0.0 **** 0.06
5198 H 17.10781710708443 72.64551912361009 105.5700509787494 H 0.0 **** 0.06
5199 H 17.95528503693987 71.884435280719 106.93883531488811 H 0.0 **** 0.06
5200 H 18.481660179755252 71.55300888801807 105.2713510981726 H 0.0 **** 0.06
5201 C 56.62566274040179 20.51239500026952 62.44442894546279 C 0.0 **** -0.24
5202 H 55.921389972127145 19.76488958154016 62.80923364291084 H 0.0 **** 0.06
5203 H 56.775273698442305 20.377663800790913 61.373493376962074 H 0.0 **** 0.06
5204 H 57.57759940246092 20.39723152658246 62.962565915744335 H 0.0 **** 0.06
5205 H 56.226683495481694 21.509604765045253 62.63385780616858 H 0.0 **** 0.06
5206 C 89.47294010216186 105.19691343704085 77.86586413635567 C 0.0 **** -0.24
5207 H 89.08398894852297 106.0752456474512 77.35154084725784 H 0.0 **** 0.06
5208 H 88.90388936116642 104.31761079803101 77.56144472326955 H 0.0 **** 0.06
5209 H 89.37913895997411 105.33496541240044 78.9432498578891 H 0.0 **** 0.06
5210 H 90.52196569629854 105.05778260067859 77.60692629357467 H 0.0 **** 0.06
5211 C 47.773529481711506 77.28286973514957 94.68176267638 C 0.0 **** -0.24
5212 H 48.30425025756297 76.510407509705 95.23808409364335 H 0.0 **** 0.06
5213 H 46.699265979499785 77.11297629871558 94.76116782542536 H 0.0 **** 0.06
5214 H 48.07189059154797 77.24510784733013 93.63460003908367 H 0.0 **** 0.06
5215 H 48.019051288406345 78.26101580435872 95.09543438100934 H 0.0 **** 0.06
5216 C 83.95725057684334 80.94942184604804 70.03899926542815 C 0.0 **** -0.24
5217 H 83.57012542777386 81.96216560488963 69.92982452287063 H 0.0 **** 0.06
5218 H 85.01390555538799 80.93279543046006 69.77433209538424 H 0.0 **** 0.06
5219 H 83.40668115590123 80.27801213380624 69.37993835280162 H 0.0 **** 0.06
5220 H 83.83477963882251 80.62350253793304 71.0723590742586 H 0.0 **** 0.06
5221 C 93.20095244662721 72.35395120394637 98.22337493010369 C 0.0 **** -0.24
5222 H 93.6297764384934 72.41000905074506 99.2236136179639 H 0.0 **** 0.06
5223 H 92.16073570713866 72.67755561136028 98.25612050386374 H 0.0 **** 0.06
5224 H 93.25038650954667 71.32525975957805 97.86379147911 H 0.0 **** 0.06
5225 H 93.76293307100383 73.00126121054328 97.54976411783122 H 0.0 **** 0.06
5226 C 28.149550243906788 111.79559190001129 20.386574786846182 C 0.0 **** -0.24
5227 H 29.05687808527074 111.35612937109147 20.800742419368817 H 0.0 **** 0.06
5228 H 28.07602681259999 112.83820057651249 20.69991256639227 H 0.0 **** 0.06
5229 H 27.280819840640106 111.24538726656039 20.748797568099718 H 0.0 **** 0.06
5230 H 28.184317845403513 111.74462111680012 19.298869362939854 H 0.0 **** 0.06
5231 C 66.05341772933562 96.9889564196132 42.35109350173627 C 0.0 **** -0.24
5232 H 66.88687052250651 97.05326167380369 41.65119617210431 H 0.0 **** 0.06
5233 H 65.58021680882456 96.01040062029944 42.263119260147306 H 0.0 **** 0.06
5234 H 65.32451114235784 97.76631206344942 42.12012076728931 H 0.0 **** 0.06
5235 H 66.42113473667519 97.12488316452973 43.368153523482164 H 0.0 **** 0.06
5236 C 52.700235545300814 6.387377036211786 8.21845667593277 C 0.0 **** -0.24
5237 H 52.4266750965885 6.3508124103130115 7.162817146447168 H 0.0 **** 0.06
5238 H 52.284077554831185 5.519887847743897 8.731512276614524 H 0.0 **** 0.06
5239 H 52.303288363363436 7.298571087707476 8.664640754558633 H 0.0 **** 0.06
5240 H 53.78632279186701 6.379960250055682 8.311925736803701 H 0.0 **** 0.06
5241 C 65.5656410366081 27.771399941321874 0.633425705790243 C 0.0 **** -0.24
5242 H 64.90532975947687 28.503259880614678 1.0981148284128022 H 0.0 **** 0.06
5243 H 66.21765707827097 27.33757553614845 1.3923509336279967 H 0.0 **** 0.06
5244 H 66.17123658697196 28.262011889450605 -0.1292747414892368 H 0.0 **** 0.06
5245 H 64.96959734017915 26.984841852840077 0.1727477941714426 H 0.0 **** 0.06
5246 C 106.20838543070607 74.99302200131797 34.601201364533836 C 0.0 **** -0.24
5247 H 106.42393496318002 75.96009299606914 35.05684061290954 H 0.0 **** 0.06
5248 H 105.58186998690817 74.40661779500687 35.27314441194525 H 0.0 **** 0.06
5249 H 107.14184887837342 74.46239520520487 34.41818206929263 H 0.0 **** 0.06
5250 H 105.68506867408911 75.14585785440428 33.65688108554605 H 0.0 **** 0.06
5251 C 17.647352462329764 0.7737797669628605 30.771533684521614 C 0.0 **** -0.24
5252 H 16.63757262721944 0.42893232716465945 30.994827017261287 H 0.0 **** 0.06
5253 H 18.26655898186533 -0.07648616968447186 30.486349419538612 H 0.0 **** 0.06
5254 H 18.06982309100522 1.252462569403832 31.654748428346352 H 0.0 **** 0.06
5255 H 17.612419696968715 1.4901015781032925 29.951090089228785 H 0.0 **** 0.06
5256 C 43.898096525861234 111.60921642917495 34.695256630700214 C 0.0 **** -0.24
5257 H 44.898190377137155 111.17688806955165 34.729292672986446 H 0.0 **** 0.06
5258 H 43.86693654128017 112.5012091067169 35.32079006138511 H 0.0 **** 0.06
5259 H 43.17514473760056 110.88110956889916 35.06361392926584 H 0.0 **** 0.06
5260 H 43.65279850552548 111.87706176597304 33.666910970051305 H 0.0 **** 0.06
5261 C 72.21302533572799 86.10550711565003 71.37046466270931 C 0.0 **** -0.24
5262 H 71.69020285973414 85.17361531676295 71.5858348133695 H 0.0 **** 0.06
5263 H 72.15831286973827 86.76194259038147 72.23938239543926 H 0.0 **** 0.06
5264 H 71.74669061031159 86.59499471608956 70.5155513519559 H 0.0 **** 0.06
5265 H 73.25689500312785 85.89147583936614 71.14109009007231 H 0.0 **** 0.06
5266 C 54.36642359846643 42.218483466131886 83.50510862110477 C 0.0 **** -0.24
5267 H 55.22592851178946 42.84750517032364 83.73680230833313 H 0.0 **** 0.06
5268 H 54.110462623836995 41.61899685609522 84.37839478029727 H 0.0 **** 0.06
5269 H 54.61326177582326 41.560834877319564 82.67159304383674 H 0.0 **** 0.06
5270 H 53.51890610740385 42.84784642807324 83.23316130362664 H 0.0 **** 0.06
5271 C 61.0061708348519 23.45033968794441 35.694378245860975 C 0.0 **** -0.24
5272 H 60.89988826984495 24.068301156633254 36.58637916938207 H 0.0 **** 0.06
5273 H 60.78244692865795 22.412414704110095 35.94322634118487 H 0.0 **** 0.06
5274 H 62.02711580041495 23.523638229139387 35.320889807291465 H 0.0 **** 0.06
5275 H 60.312590134564374 23.797847880125666 34.928536978378574 H 0.0 **** 0.06
5276 C 84.90768865060687 26.621336812587543 95.84341499013209 C 0.0 **** -0.24
5277 H 84.30857271131319 26.078239580526635 96.57362824339486 H 0.0 **** 0.06
5278 H 84.26540060976362 26.97162494702537 95.03455199705382 H 0.0 **** 0.06
5279 H 85.67369147385233 25.96020077236853 95.43797228807568 H 0.0 **** 0.06
5280 H 85.38215686280023 27.474840138796537 96.3257943503159 H 0.0 **** 0.06
5281 C 12.391082727395151 55.82560455029145 85.88892470196811 C 0.0 **** -0.24
5282 H 12.942528117383393 56.693235510223765 86.25044155301663 H 0.0 **** 0.06
5283 H 12.281627038679584 55.88983924028022 84.80550584178297 H 0.0 **** 0.06
5284 H 11.404886496472255 55.80144856852325 86.35304912013305 H 0.0 **** 0.06
5285 H 12.935716835417889 54.91686767583554 86.14582928661304 H 0.0 **** 0.06
5286 C 17.811796123822234 112.05801609853151 115.12160955481352 C 0.0 **** -0.24
5287 H 18.09746512078337 111.01795991594581 115.27812891538167 H 0.0 **** 0.06
5288 H 17.528111685168057 112.5041904673208 116.07463081349567 H 0.0 **** 0.06
5289 H 16.96718980014117 112.10164234752182 114.43367358551848 H 0.0 **** 0.06
5290 H 18.653464300082618 112.60559003742524 114.69905618323583 H 0.0 **** 0.06
5291 C 27.63693960566374 41.07825348069872 48.41922708727688 C 0.0 **** -0.24
5292 H 27.671734419300776 40.38698114127479 47.578328920285514 H 0.0 **** 0.06
5293 H 26.65368759945801 41.54715242210614 48.463906746215685 H 0.0 **** 0.06
5294 H 28.400303508970666 41.845808248634015 48.290230118366395 H 0.0 **** 0.06
5295 H 27.82292859623297 40.53359618193187 49.34540338924771 H 0.0 **** 0.06
5296 C 53.05674237762253 18.401576781380875 62.85309949372379 C 0.0 **** -0.24
5297 H 53.829632314537776 18.86366867998409 62.23891207232555 H 0.0 **** 0.06
5298 H 52.11698908469151 18.937188172980225 62.717051063317285 H 0.0 **** 0.06
5299 H 53.35188899907274 18.44639466389774 63.901350792665994 H 0.0 **** 0.06
5300 H 52.92924573523561 17.360987647273355 62.55588949132846 H 0.0 **** 0.06
5301 C 15.552487639129197 37.289786233764005 10.038213015291774 C 0.0 **** -0.24
5302 H 15.887921511208106 38.30585858498705 10.248251378332668 H 0.0 **** 0.06
5303 H 14.465129765723646 37.27593817451083 9.957286450550853 H 0.0 **** 0.06
5304 H 15.865171332793068 36.62959323964958 10.848223002073922 H 0.0 **** 0.06
5305 H 15.992478978677298 36.948122573230535 9.10139365115478 H 0.0 **** 0.06
5306 C 70.59580879215875 59.62475532300747 100.61412185122498 C 0.0 **** -0.24
5307 H 71.45065963969185 59.18907182335736 101.13070664000912 H 0.0 **** 0.06
5308 H 69.83422063014706 58.859922355715774 100.4633009393659 H 0.0 **** 0.06
5309 H 70.91698992981318 60.01329219516763 99.64646701672649 H 0.0 **** 0.06
5310 H 70.18453035840491 60.43642282939452 101.21256546377091 H 0.0 **** 0.06
5311 C 29.779294327463646 67.20022494306738 69.00235938158576 C 0.0 **** -0.24
5312 H 30.069204111227094 67.54095201742254 69.99666033326454 H 0.0 **** 0.06
5313 H 29.540535007799917 66.13693539671334 69.03892905594287 H 0.0 **** 0.06
5314 H 30.60258917968298 67.36507859836962 68.30712284773966 H 0.0 **** 0.06
5315 H 28.904660120355658 67.75864983795086 68.66829108837786 H 0.0 **** 0.06
5316 C 110.18799057788698 40.20021987391721 89.00074993882964 C 0.0 **** -0.24
5317 H 110.05633469590795 40.8111612469143 89.89419068917022 H 0.0 **** 0.06
5318 H 110.2662415082488 40.84796109451407 88.12680763665986 H 0.0 **** 0.06
5319 H 109.33131667256794 39.535923637487656 88.88543160861116 H 0.0 **** 0.06
5320 H 111.09784193103285 39.60777835840904 89.09616230994942 H 0.0 **** 0.06
5321 C 53.24027865338033 77.16487669234573 67.323651250207 C 0.0 **** -0.24
5322 H 53.86539334080115 77.98054759899333 66.95818216120347 H 0.0 **** 0.06
5323 H 53.081658250282516 76.44181017312832 66.52249930328043 H 0.0 **** 0.06
5324 H 52.279316162963056 77.56180957242611 67.65033507931344 H 0.0 **** 0.06
5325 H 53.7353617530033 76.67510683957164 68.16122876248653 H 0.0 **** 0.06
5326 C 62.11078425665796 48.51559610454052 14.949942282564464 C 0.0 **** -0.24
5327 H 62.92375726346106 47.80118928946426 14.817112289631083 H 0.0 **** 0.06
5328 H 61.384968003029904 48.112395104888336 15.655720328640868 H 0.0 **** 0.06
5329 H 61.62449662931723 48.69422062833055 13.990849171146351 H 0.0 **** 0.06
5330 H 62.510891507395264 49.45365251816879 15.33430187801666 H 0.0 **** 0.06
5331 C 115.86137937228762 62.37551895408469 2.9215957564556554 C 0.0 **** -0.24
5332 H 115.14047970557768 62.178386702703655 2.127987838864316 H 0.0 **** 0.06
5333 H 116.12600354600056 61.43787033308623 3.4125979995434115 H 0.0 **** 0.06
5334 H 115.42192932492085 63.056497364607104 3.6506403642442447 H 0.0 **** 0.06
5335 H 116.75729537528883 62.82713146497567 2.495566858535364 H 0.0 **** 0.06
5336 C 15.556341124801833 109.39071109709514 73.73167285110017 C 0.0 **** -0.24
5337 H 16.37241563384717 108.6672804337629 73.73573591610366 H 0.0 **** 0.06
5338 H 15.656388636585433 110.0555647281002 74.59021240735052 H 0.0 **** 0.06
5339 H 14.603899912586911 108.86410334321116 73.78847911817422 H 0.0 **** 0.06
5340 H 15.594349367922234 109.9756533031275 72.8125613400504 H 0.0 **** 0.06
5341 C 105.03813417645756 27.562138401462875 85.1054490093153 C 0.0 **** -0.24
5342 H 104.58419677903836 27.608975307995138 86.09578337792846 H 0.0 **** 0.06
5343 H 105.4653386372766 28.53388721393611 84.85587614123745 H 0.0 **** 0.06
5344 H 104.27878721826607 27.298693570020617 84.36984590553777 H 0.0 **** 0.06
5345 H 105.8249328373372 26.807312936310637 85.10238445454354 H 0.0 **** 0.06
5346 C 93.87482444143015 13.66520175399478 67.2144506953079 C 0.0 **** -0.24
5347 H 93.32497864166976 13.572870880045514 66.27768413527744 H 0.0 **** 0.06
5348 H 94.55664551978103 14.513374933382636 67.15370341265475 H 0.0 **** 0.06
5349 H 94.44362951948602 12.753378227258963 67.3931754416918 H 0.0 **** 0.06
5350 H 93.17181231035451 13.821047000981764 68.03320842067225 H 0.0 **** 0.06
5351 C 68.97499521351489 114.89438367024813 3.3652166021207943 C 0.0 **** -0.24
5352 H 68.20340250100361 114.71571340256203 2.617299826759595 H 0.0 **** 0.06
5353 H 69.32139116501219 115.92648037487263 3.2902475356433314 H 0.0 **** 0.06
5354 H 69.81126581868847 114.21661819339941 3.1947367506638695 H 0.0 **** 0.06
5355 H 68.56331767294233 114.72047208031233 4.360187163948451 H 0.0 **** 0.06
5356 C 29.477672814499883 10.467492614205668 7.000721953106705 C 0.0 **** -0.24
5357 H 29.036367729127846 11.329461499729945 6.500476592783116 H 0.0 **** 0.06
5358 H 28.68776042397775 9.786819110594365 7.316466939589873 H 0.0 **** 0.06
5359 H 30.039790745964993 10.802216453118135 7.872484157667998 H 0.0 **** 0.06
5360 H 30.14801816069177 9.95234939441768 6.3115415425859 H 0.0 **** 0.06
5361 C 94.57535131477638 110.36495481118024 57.02571353763657 C 0.0 **** -0.24
5362 H 94.11977645127533 110.34801732679767 58.01666950581474 H 0.0 **** 0.06
5363 H 94.7471131436358 111.39812080755796 56.72295803902215 H 0.0 **** 0.06
5364 H 93.90893363200593 109.881892030416 56.31196237821457 H 0.0 **** 0.06
5365 H 95.52581706213485 109.83122191242387 57.054955283525466 H 0.0 **** 0.06
5366 C 22.081207076346402 52.43447120536763 10.034038417240794 C 0.0 **** -0.24
5367 H 22.226932968286206 52.98916099350561 9.106749245475356 H 0.0 **** 0.06
5368 H 21.76968163061403 53.120843896338954 10.821661686607555 H 0.0 **** 0.06
5369 H 23.01624071588182 51.9531621818312 10.319442764457477 H 0.0 **** 0.06
5370 H 21.31236446947389 51.67588354095335 9.885563515275607 H 0.0 **** 0.06
5371 C 82.4557259474017 106.85170504417414 51.695058818702734 C 0.0 **** -0.24
5372 H 83.11458844261855 106.224499323938 51.09400956981572 H 0.0 **** 0.06
5373 H 81.65749247657706 107.2461829374275 51.06565788814177 H 0.0 **** 0.06
5374 H 83.02670043737783 107.67702457733549 52.119402682475055 H 0.0 **** 0.06
5375 H 82.02404983612217 106.2569699609873 52.500531924350774 H 0.0 **** 0.06
5376 C 74.03201560399921 100.96051006332169 92.49068220582075 C 0.0 **** -0.24
5377 H 74.47000791566401 101.83015847280103 92.981879131104 H 0.0 **** 0.06
5378 H 74.38120372894201 100.91207202553252 91.45974412927552 H 0.0 **** 0.06
5379 H 72.94503250687183 101.04568037924403 92.50409038415856 H 0.0 **** 0.06
5380 H 74.33215711820449 100.05626102698295 93.0195334876174 H 0.0 **** 0.06
5381 C 71.2309877932745 38.037342711633414 49.824722673669214 C 0.0 **** -0.24
5382 H 70.93049935796685 38.85293965173929 50.48349682046364 H 0.0 **** 0.06
5383 H 70.5520789409997 37.19525473349245 49.95659205211359 H 0.0 **** 0.06
5384 H 72.24721859065968 37.72823639792438 50.070513748283986 H 0.0 **** 0.06
5385 H 71.19511516008131 38.3757015547082 48.788959940038296 H 0.0 **** 0.06
5386 C 63.66061838735509 106.49711893254414 64.11703136482731 C 0.0 **** -0.24
5387 H 64.28837525728923 106.15300325069148 63.29588302366154 H 0.0 **** 0.06
5388 H 63.94820162727073 107.51205882014344 64.39396989807159 H 0.0 **** 0.06
5389 H 63.78806893580494 105.8369224913832 64.97407739429877 H 0.0 **** 0.06
5390 H 62.61679122151113 106.4884223019491 63.803751675273226 H 0.0 **** 0.06
5391 C 71.21441981311244 79.36726184785692 88.19464009548085 C 0.0 **** -0.24
5392 H 70.18573774192518 79.07904596058961 88.4123343663507 H 0.0 **** 0.06
5393 H 71.2557988184038 80.43811019108455 87.99257417520352 H 0.0 **** 0.06
5394 H 71.56749069335658 78.81813258474426 87.32150723163704 H 0.0 **** 0.06
5395 H 71.84598691809492 79.13309600052787 89.05057654796693 H 0.0 **** 0.06
5396 C 115.24026228636266 66.87669993679441 58.83149248865277 C 0.0 **** -0.24
5397 H 114.98999115810787 66.30112220708156 59.72282274264157 H 0.0 **** 0.06
5398 H 114.7523258026462 66.43240184510913 57.96401329404199 H 0.0 **** 0.06
5399 H 116.32096877914745 66.86672667924674 58.68526645934736 H 0.0 **** 0.06
5400 H 114.89938860447035 67.90396961778535 58.95517362595368 H 0.0 **** 0.06
5401 C 36.173533906719655 107.75175051114797 77.58586633365564 C 0.0 **** -0.24
5402 H 35.63967778653046 107.99586039137807 76.66766921432648 H 0.0 **** 0.06
5403 H 36.00920182049142 108.53975799528277 78.32148185350397 H 0.0 **** 0.06
5404 H 37.23891199705705 107.66748658241798 77.37470762578943 H 0.0 **** 0.06
5405 H 35.80403656050323 106.80454243852111 77.97909725643444 H 0.0 **** 0.06
5406 C 15.468704081623827 15.468425047366363 16.770405425765404 C 0.0 **** -0.24
5407 H 15.780861062433644 15.178485176284632 17.773523482364382 H 0.0 **** 0.06
5408 H 14.636548883439701 14.839068506522832 16.453787236932 H 0.0 **** 0.06
5409 H 16.30314675579416 15.343149564970883 16.08085310313129 H 0.0 **** 0.06
5410 H 15.153642098716716 16.51203177146977 16.774756834868555 H 0.0 **** 0.06
5411 C 73.51071821621204 77.15102180979497 103.07776206994208 C 0.0 **** -0.24
5412 H 72.77155659044112 76.9756990382333 103.8597780631564 H 0.0 **** 0.06
5413 H 74.20995172377295 77.92003544747075 103.40563929611409 H 0.0 **** 0.06
5414 H 73.00609964974629 77.48190940707133 102.16922117874111 H 0.0 **** 0.06
5415 H 74.05290851888228 76.22711191178811 102.87643859435133 H 0.0 **** 0.06
5416 C 2.30397276668306 76.01251243117423 101.7032894557768 C 0.0 **** -0.24
5417 H 2.6538038814774865 76.27661201929115 102.70107427269846 H 0.0 **** 0.06
5418 H 2.834114647677959 75.12554414365025 101.35559010221877 H 0.0 **** 0.06
5419 H 2.4940546228159093 76.84095820387623 101.02065157593586 H 0.0 **** 0.06
5420 H 1.2343616261444161 75.80653833085734 101.73664533214821 H 0.0 **** 0.06
5421 C 108.45128541481948 67.15412839578948 46.17902476516053 C 0.0 **** -0.24
5422 H 107.51989891084344 66.87935889004672 46.67402866283666 H 0.0 **** 0.06
5423 H 109.29252233458033 66.90821298221925 46.82687969180562 H 0.0 **** 0.06
5424 H 108.45120031270982 68.22434204086392 45.972102760337975 H 0.0 **** 0.06
5425 H 108.53984886867991 66.60346096316107 45.24213368208634 H 0.0 **** 0.06
5426 C 16.75609028670115 20.8533575889453 100.30793083644517 C 0.0 **** -0.24
5427 H 17.52791753514621 21.339019351506774 99.71067517290942 H 0.0 **** 0.06
5428 H 16.004965437552233 20.420847128435852 99.64601074861616 H 0.0 **** 0.06
5429 H 16.285704943317306 21.587729143409994 100.96065124155177 H 0.0 **** 0.06
5430 H 17.20546086266746 20.065519217933872 100.91159273659514 H 0.0 **** 0.06
5431 C 114.56829418988526 87.06272661541288 9.70375727121268 C 0.0 **** -0.24
5432 H 115.04649198964967 86.62199904871474 10.578588140400598 H 0.0 **** 0.06
5433 H 115.33159404481556 87.47373928762528 9.042427605172122 H 0.0 **** 0.06
5434 H 113.89490554806856 87.85971423858624 10.020668121849724 H 0.0 **** 0.06
5435 H 114.0011618264724 86.29727329649708 9.175521550664314 H 0.0 **** 0.06
5436 C 65.51433444351619 109.75261427370289 24.329325385125628 C 0.0 **** -0.24
5437 H 66.25157795910292 109.87313934209266 25.123708623706364 H 0.0 **** 0.06
5438 H 66.01767126171111 109.76116207534058 23.362400381285624 H 0.0 **** 0.06
5439 H 64.79806402833438 110.57257856054127 24.373372868449962 H 0.0 **** 0.06
5440 H 64.99234612743535 108.80526015011439 24.45870175729482 H 0.0 **** 0.06
5441 C 67.40546910808513 7.627424251981552 12.561142401193905 C 0.0 **** -0.24
5442 H 67.84614309468986 8.19205906896957 11.73942472862035 H 0.0 **** 0.06
5443 H 67.564216270516 8.165476109408019 13.49641432940993 H 0.0 **** 0.06
5444 H 67.87595221301095 6.646099025513422 12.621709789111463 H 0.0 **** 0.06
5445 H 66.3362110168411 7.508353733867949 12.387599085001 H 0.0 **** 0.06
5446 C 51.40610053039393 105.30768426019702 24.686165780752468 C 0.0 **** -0.24
5447 H 50.927857410733964 104.72840112368308 25.476282581397676 H 0.0 **** 0.06
5448 H 52.27656720357834 104.76529773819425 24.315708419132392 H 0.0 **** 0.06
5449 H 51.72048786542666 106.27292093155478 25.08294119377031 H 0.0 **** 0.06
5450 H 50.69913938370428 105.46186710274472 23.871684052084795 H 0.0 **** 0.06
5451 C 39.62795606588162 23.559746556084917 94.63049167795913 C 0.0 **** -0.24
5452 H 40.32673314665098 24.38555325883948 94.76846600484583 H 0.0 **** 0.06
5453 H 39.695719191651136 23.19338181802985 93.6060410861549 H 0.0 **** 0.06
5454 H 38.613356179034824 23.906675298561936 94.8270508300294 H 0.0 **** 0.06
5455 H 39.87793434543974 22.754331039215003 95.32159493443027 H 0.0 **** 0.06
5456 C 79.30216616220622 28.515868520987226 70.0305898299691 C 0.0 **** -0.24
5457 H 79.81802256952824 28.62530315201417 69.07749272078763 H 0.0 **** 0.06
5458 H 78.49642138733796 27.788045979812694 69.92633643074996 H 0.0 **** 0.06
5459 H 78.88580650716173 29.477292668056293 70.33083339277218 H 0.0 **** 0.06
5460 H 80.00652000004894 28.172292002439406 70.78875528874738 H 0.0 **** 0.06
5461 C 60.759710215554115 116.68482978890418 46.337611791386166 C 0.0 **** -0.24
5462 H 59.992955274990216 115.92023673046964 46.207422081795826 H 0.0 **** 0.06
5463 H 60.42163341925731 117.61769346101772 45.8848563424942 H 0.0 **** 0.06
5464 H 61.68160108871243 116.36022741169754 45.85775313541312 H 0.0 **** 0.06
5465 H 60.93816702753828 116.84201029286243 47.40149920953681 H 0.0 **** 0.06
5466 C 36.26217517833638 55.40373209111331 10.424347054705038 C 0.0 **** -0.24
5467 H 36.95640575381819 54.678576298296775 10.001141572390495 H 0.0 **** 0.06
5468 H 35.23851348968597 55.09774148229778 10.206196836140322 H 0.0 **** 0.06
5469 H 36.44997442412943 56.384380213711125 9.986680868265978 H 0.0 **** 0.06
5470 H 36.404166658474466 55.45444707618773 11.504719435730436 H 0.0 **** 0.06
5471 C 13.371457961114118 85.4659947522909 60.41705522055037 C 0.0 **** -0.24
5472 H 13.950178230074556 84.76852239525519 61.021397872025034 H 0.0 **** 0.06
5473 H 12.984273478012682 84.94954013000336 59.53819412884582 H 0.0 **** 0.06
5474 H 14.011538282252559 86.28986550633886 60.10101544048433 H 0.0 **** 0.06
5475 H 12.541332912842137 85.85580550147 61.00596517642242 H 0.0 **** 0.06
5476 C 73.45592878035922 66.2449952743577 52.312296187788625 C 0.0 **** -0.24
5477 H 73.80257933516435 67.03374756188694 52.97983058782548 H 0.0 **** 0.06
5478 H 72.40265267506268 66.40329591614116 52.07917527860871 H 0.0 **** 0.06
5479 H 73.57868492426712 65.27733846778347 52.80014685754901 H 0.0 **** 0.06
5480 H 74.0396219252311 66.26444586071267 51.39218590743586 H 0.0 **** 0.06
5481 C 59.35563305456884 8.82012936026527 61.5438774271085 C 0.0 **** -0.24
5482 H 58.6620216226097 8.107368150500832 61.9899722667443 H 0.0 **** 0.06
5483 H 59.2120929559936 9.799775866667005 61.999271656557596 H 0.0 **** 0.06
5484 H 59.170216932489325 8.886238478133663 60.47138851689198 H 0.0 **** 0.06
5485 H 60.37992373868991 8.486589124173975 61.71573369886903 H 0.0 **** 0.06
5486 C 111.18703945462146 29.134616153159 68.70879585548323 C 0.0 **** -0.24
5487 H 111.32343432226455 29.269818409503046 69.78200542854592 H 0.0 **** 0.06
5488 H 110.25433803684685 29.60586707950923 68.39927432446439 H 0.0 **** 0.06
5489 H 111.15176636814857 28.06967339822969 68.47994944181613 H 0.0 **** 0.06
5490 H 112.02062549797068 29.593021385466862 68.17659389702911 H 0.0 **** 0.06
5491 C 80.13615006626372 90.4871069236986 61.391649303771366 C 0.0 **** -0.24
5492 H 79.15021690901682 90.02312534680073 61.35711097462525 H 0.0 **** 0.06
5493 H 80.90134207265419 89.7209384352604 61.26135315010213 H 0.0 **** 0.06
5494 H 80.27300620491559 90.97669729738183 62.354927833545524 H 0.0 **** 0.06
5495 H 80.21944075600044 91.22397642549038 60.5930317855096 H 0.0 **** 0.06
5496 C 9.476529962553428 15.343870381620349 82.82788616999125 C 0.0 **** -0.24
5497 H 9.083649481802624 15.516976788683394 83.83047190000153 H 0.0 **** 0.06
5498 H 10.495537287013178 14.963230136931571 82.89797929634514 H 0.0 **** 0.06
5499 H 9.475778566589867 16.28113434139513 82.27092773064831 H 0.0 **** 0.06
5500 H 8.850271161072982 14.615291434393015 82.3138671561347 H 0.0 **** 0.06
5501 C 79.33238337885751 70.57368533642648 12.671639994183408 C 0.0 **** -0.24
5502 H 80.14458580876186 71.2585378079259 12.426804740155205 H 0.0 **** 0.06
5503 H 78.4682486755583 71.1434783807012 13.014555607266203 H 0.0 **** 0.06
5504 H 79.6565328829297 69.89456257349156 13.460586996762231 H 0.0 **** 0.06
5505 H 79.06249876595612 69.99978248161301 11.785579766018287 H 0.0 **** 0.06
5506 C 107.35535552361424 11.004527792851093 90.05853938619313 C 0.0 **** -0.24
5507 H 108.33044597544799 11.031094116087672 89.57093516762117 H 0.0 **** 0.06
5508 H 107.3387232633599 11.721952922671818 90.87791379057828 H 0.0 **** 0.06
5509 H 107.17240551251501 10.002918894053806 90.44741836717876 H 0.0 **** 0.06
5510 H 106.58077319459741 11.260566276181038 89.33462671062674 H 0.0 **** 0.06
5511 C 46.21692768508899 45.10387846410521 27.840219188203974 C 0.0 **** -0.24
5512 H 45.518428374829284 44.456494492053594 28.37173377273355 H 0.0 **** 0.06
5513 H 46.6537909436762 45.817856201670224 28.53785462506942 H 0.0 **** 0.06
5514 H 45.68616369530447 45.640933425316206 27.05370373485394 H 0.0 **** 0.06
5515 H 47.00768761741596 44.49793761062679 27.396556651564012 H 0.0 **** 0.06
5516 C 15.917270397436681 97.97586854346909 103.77540515340286 C 0.0 **** -0.24
5517 H 14.920207544559247 98.2330447707914 103.41756994913592 H 0.0 **** 0.06
5518 H 16.287522577918935 97.10991697411029 103.22568865530499 H 0.0 **** 0.06
5519 H 15.87180039467222 97.73940953371147 104.83818149127623 H 0.0 **** 0.06
5520 H 16.587747213193325 98.81979100327541 103.61817413978534 H 0.0 **** 0.06
5521 C 71.1759031810879 46.97627683652816 36.669481502548365 C 0.0 **** -0.24
5522 H 71.36555047543845 47.01535285336074 35.5961348582225 H 0.0 **** 0.06
5523 H 70.27211571173717 47.54150150596968 36.8979377824441 H 0.0 **** 0.06
5524 H 72.02172332388275 47.41017266520845 37.20290503772148 H 0.0 **** 0.06
5525 H 71.04398766107508 45.93924312917741 36.97699948634403 H 0.0 **** 0.06
5526 C 63.823479708214954 67.25299788913074 115.45666788558063 C 0.0 **** -0.24
5527 H 63.19856874432936 66.36046667653304 115.4428027678442 H 0.0 **** 0.06
5528 H 63.708553703050534 67.79168116993017 114.51609609177275 H 0.0 **** 0.06
5529 H 64.86675730927789 66.96357779280547 115.58503397605057 H 0.0 **** 0.06
5530 H 63.52130426740113 67.89605655303811 116.2833350068771 H 0.0 **** 0.06
5531 C 54.897276841480526 38.462296893956534 56.26728594457893 C 0.0 **** -0.24
5532 H 55.61566256033238 38.226915193264006 55.48284709727437 H 0.0 **** 0.06
5533 H 53.95071560147442 37.96600661908707 56.05485076123813 H 0.0 **** 0.06
5534 H 54.741417417871936 39.54038504197635 56.30570139634284 H 0.0 **** 0.06
5535 H 55.28198314186428 38.11690400092127 57.22786643984756 H 0.0 **** 0.06
5536 C 32.208661915869754 65.27076792589017 26.210747790618996 C 0.0 **** -0.24
5537 H 31.226197746516505 64.80274928973984 26.144863745859055 H 0.0 **** 0.06
5538 H 32.33470717537409 65.96658498556667 25.380480211937936 H 0.0 **** 0.06
5539 H 32.98079990488475 64.50378987433666 26.163530450890107 H 0.0 **** 0.06
5540 H 32.29014667073011 65.811730206119 27.154051596077167 H 0.0 **** 0.06
5541 C 17.269006571242898 29.029064856403124 1.3903113078233957 C 0.0 **** -0.24
5542 H 16.252884231188688 28.79103880464325 1.7067177268584715 H 0.0 **** 0.06
5543 H 17.979319655900156 28.475155983577338 2.004490658771232 H 0.0 **** 0.06
5544 H 17.443540715081625 30.098612378947706 1.5072852085333466 H 0.0 **** 0.06
5545 H 17.397824330203278 28.752153106469393 0.34486608003706465 H 0.0 **** 0.06
5546 C 63.26429674280583 100.37152701710667 90.69958066823358 C 0.0 **** -0.24
5547 H 63.75062096635528 99.82157721187292 91.50586224520148 H 0.0 **** 0.06
5548 H 62.37012572202445 100.86260476178 91.08387718895679 H 0.0 **** 0.06
5549 H 62.98655079442958 99.67966855222357 89.90462909859812 H 0.0 **** 0.06
5550 H 63.95066859802237 101.12106977423974 90.30594977114478 H 0.0 **** 0.06
5551 C 61.6077240884025 104.36713400964459 25.594027932028126 C 0.0 **** -0.24
5552 H 61.37638907808708 105.38190347829035 25.270820595313296 H 0.0 **** 0.06
5553 H 61.782230432073625 103.7387599150141 24.720361790236808 H 0.0 **** 0.06
5554 H 60.76980749177681 103.96974483434172 26.167588423587404 H 0.0 **** 0.06
5555 H 62.501718262898045 104.37919821284422 26.216802196876017 H 0.0 **** 0.06
5556 C 63.5998275469259 42.62849902291103 98.24515926907483 C 0.0 **** -0.24
5557 H 62.66481195926938 42.785574816395695 98.78335164993666 H 0.0 **** 0.06
5558 H 63.79415094213909 43.48532247187754 97.5983501113848 H 0.0 **** 0.06
5559 H 63.52294692771181 41.725710317954196 97.6389646569935 H 0.0 **** 0.06
5560 H 64.41608721401889 42.5186893180925 98.95836322711435 H 0.0 **** 0.06
5561 C 81.50140047578424 70.52367180541435 73.23946488796616 C 0.0 **** -0.24
5562 H 82.53826875689563 70.77751654467934 73.46023850777522 H 0.0 **** 0.06
5563 H 80.9268072133367 70.50279069739992 74.1661927896277 H 0.0 **** 0.06
5564 H 81.46148694061648 69.54338746238938 72.76413710198483 H 0.0 **** 0.06
5565 H 81.08000935667309 71.27126744890364 72.56629972844416 H 0.0 **** 0.06
5566 C 78.23429971735123 32.826395575080696 14.51668694608793 C 0.0 **** -0.24
5567 H 77.3865858052855 32.3558887860243 15.015480981722163 H 0.0 **** 0.06
5568 H 78.41265498445259 32.33260645317907 13.56174001788321 H 0.0 **** 0.06
5569 H 79.12038298109115 32.73419057214815 15.145207181344546 H 0.0 **** 0.06
5570 H 78.01658775583294 33.88073283131075 14.346148335827479 H 0.0 **** 0.06
5571 C 23.079390754459055 106.378877649593 77.580693903607 C 0.0 **** -0.24
5572 H 22.42393002771928 106.95132466586679 76.92541874483643 H 0.0 **** 0.06
5573 H 23.999129374001953 106.93757833679814 77.752907018912 H 0.0 **** 0.06
5574 H 23.31666734796579 105.42299995717241 77.11279148973381 H 0.0 **** 0.06
5575 H 22.57730471269018 106.20231811956174 78.5318922534685 H 0.0 **** 0.06
5576 C 108.5833382319033 97.60678097668028 97.44375849246737 C 0.0 **** -0.24
5577 H 107.97319313760204 98.35574266944224 97.94705782757956 H 0.0 **** 0.06
5578 H 108.41928608419818 97.66687260648646 96.36820384021203 H 0.0 **** 0.06
5579 H 108.30628980844483 96.61463332492986 97.79927240029474 H 0.0 **** 0.06
5580 H 109.63591455894712 97.7897582500521 97.6622932026361 H 0.0 **** 0.06
5581 C 70.01899878126437 38.97045675433242 13.141607617225219 C 0.0 **** -0.24
5582 H 70.5605235314394 38.10577930894587 12.75879854169736 H 0.0 **** 0.06
5583 H 69.95152886213128 38.90449656735164 14.227845192703143 H 0.0 **** 0.06
5584 H 69.01577903331787 38.98913704652321 12.714941246071106 H 0.0 **** 0.06
5585 H 70.54816369816882 39.88241409450882 12.86484548842941 H 0.0 **** 0.06
5586 C 113.38134919495187 68.98918980261976 2.392318217550269 C 0.0 **** -0.24
5587 H 113.41654959440527 67.91725655900507 2.194088290785402 H 0.0 **** 0.06
5588 H 113.18778785874238 69.15616268873453 3.451718049921169 H 0.0 **** 0.06
5589 H 112.58546233850404 69.44086495013698 1.8006657831847974 H 0.0 **** 0.06
5590 H 114.33650441976201 69.43978415774654 2.121833073599589 H 0.0 **** 0.06
5591 C 91.94162538844131 114.6039728661685 7.437751434607435 C 0.0 **** -0.24
5592 H 92.16239691903604 113.6025465905904 7.807404405651226 H 0.0 **** 0.06
5593 H 90.88712913615541 114.82605174284285 7.600039954406043 H 0.0 **** 0.06
5594 H 92.16528827048944 114.6547068287173 6.372652432849691 H 0.0 **** 0.06
5595 H 92.55317589614504 115.3302098774963 7.972680134400662 H 0.0 **** 0.06
5596 C 12.639462518939837 81.15024757026134 39.65355203579439 C 0.0 **** -0.24
5597 H 13.057931449316357 80.39463171238236 38.98875778921034 H 0.0 **** 0.06
5598 H 11.567034866438377 81.23484484150708 39.477514524135586 H 0.0 **** 0.06
5599 H 13.117831856629891 82.10971479928202 39.458905350748424 H 0.0 **** 0.06
5600 H 12.816577392949199 80.85948649231767 40.6896014324585 H 0.0 **** 0.06
5601 C 100.22311146281174 55.84758529884499 67.5035010758636 C 0.0 **** -0.24
5602 H 100.62867665448451 56.759113608611926 67.06559820491452 H 0.0 **** 0.06
5603 H 99.14022705013934 55.83351749907365 67.3759923754161 H 0.0 **** 0.06
5604 H 100.46382819812885 55.81690652928771 68.566135646301 H 0.0 **** 0.06
5605 H 100.65919747713599 54.98036732543474 67.00752028221245 H 0.0 **** 0.06
5606 C 52.230397297924014 80.20524774973515 47.96874604401541 C 0.0 **** -0.24
5607 H 52.094055163065605 80.30492256472539 46.892046131486076 H 0.0 **** 0.06
5608 H 51.63381157012833 79.36809089820329 48.33394182351828 H 0.0 **** 0.06
5609 H 51.90947310319771 81.1226337829618 48.462876118363496 H 0.0 **** 0.06
5610 H 53.282739589991024 80.02484858025514 48.186809730674504 H 0.0 **** 0.06
5611 C 108.5997276975894 52.84074421149609 30.657798053704568 C 0.0 **** -0.24
5612 H 108.23396194256935 51.92106941901068 30.201046852369444 H 0.0 **** 0.06
5613 H 108.83222496427243 53.56550481808051 29.876938203374777 H 0.0 **** 0.06
5614 H 109.49846045254407 52.62718188229468 31.235237621459902 H 0.0 **** 0.06
5615 H 107.83233744642581 53.248476170372044 31.316036487187446 H 0.0 **** 0.06
5616 C 26.56765428623831 33.6356391963555 24.621985527589317 C 0.0 **** -0.24
5617 H 27.233055569424252 33.4767669790356 23.772404563843963 H 0.0 **** 0.06
5618 H 27.074663583065302 33.33852620902735 25.539948165410863 H 0.0 **** 0.06
5619 H 25.665507533634248 33.03750081961877 24.49423312649489 H 0.0 **** 0.06
5620 H 26.29930005095259 34.69026104890591 24.6790966736244 H 0.0 **** 0.06
5621 C 100.49090779382715 65.82182143403051 67.7992393674588 C 0.0 **** -0.24
5622 H 101.07084172750373 64.90111973962928 67.7492004241171 H 0.0 **** 0.06
5623 H 101.1514585091926 66.65339897016915 68.04502490035327 H 0.0 **** 0.06
5624 H 99.72445276560896 65.72698561973553 68.56812414162931 H 0.0 **** 0.06
5625 H 100.01771284768688 66.00593627601651 66.83513657887929 H 0.0 **** 0.06
5626 C 68.29544979948264 15.009787586129647 94.90800717117844 C 0.0 **** -0.24
5627 H 67.63367261097437 15.83955479116193 94.66205954104083 H 0.0 **** 0.06
5628 H 67.83588141008346 14.072177679394628 94.59394416350497 H 0.0 **** 0.06
5629 H 68.46596216036869 14.987523559339934 95.98443079698706 H 0.0 **** 0.06
5630 H 69.24661334177426 15.138659409790193 94.39219917191889 H 0.0 **** 0.06
5631 C 71.77850004765219 46.16675982108249 86.81272595397908 C 0.0 **** -0.24
5632 H 70.99339706003099 45.69517854877478 86.22176202735182 H 0.0 **** 0.06
5633 H 72.23566817781466 46.969854595994555 86.23394179901655 H 0.0 **** 0.06
5634 H 72.53529410438105 45.42513389484644 87.06685911133144 H 0.0 **** 0.06
5635 H 71.3488120098178 46.57534765797263 87.72693057606767 H 0.0 **** 0.06
5636 C 31.507101178570508 23.77007915828878 15.164315433407296 C 0.0 **** -0.24
5637 H 31.440439741394698 23.5117439651101 14.107638507664177 H 0.0 **** 0.06
5638 H 32.555576004119814 23.8109561276261 15.462973597010063 H 0.0 **** 0.06
5639 H 30.9892888895659 23.01591467114602 15.756454176664477 H 0.0 **** 0.06
5640 H 31.043995087542555 24.743145465979296 15.329856095887607 H 0.0 **** 0.06
5641 C 103.10604106264012 26.862195895174125 32.62853066600144 C 0.0 **** -0.24
5642 H 102.02454579220449 26.72682544901795 32.634677320999316 H 0.0 **** 0.06
5643 H 103.54931949149392 26.206099942369462 31.879274825581064 H 0.0 **** 0.06
5644 H 103.50794032264022 26.615981575965122 33.61118901931491 H 0.0 **** 0.06
5645 H 103.3404778934866 27.898673470127335 32.3888569456209 H 0.0 **** 0.06
5646 C 18.032920027846387 93.28419317624721 24.650330455650604 C 0.0 **** -0.24
5647 H 17.620527194981204 94.28127735645532 24.492057515825955 H 0.0 **** 0.06
5648 H 19.062229757409003 93.25635920740223 24.293599910719472 H 0.0 **** 0.06
5649 H 17.4375708159465 92.55407976539345 24.102158327164453 H 0.0 **** 0.06
5650 H 18.00925306536101 93.04710794905364 25.714126232234655 H 0.0 **** 0.06
5651 C 89.2152041471976 102.59440301213243 58.710454548926236 C 0.0 **** -0.24
5652 H 89.95604565344533 102.93770457040517 57.98810844749991 H 0.0 **** 0.06
5653 H 88.59395989200618 101.82347384393069 58.255063801961086 H 0.0 **** 0.06
5654 H 88.58957079536913 103.43242028730822 59.015401820532844 H 0.0 **** 0.06
5655 H 89.72287347123 102.18386943120623 59.583802734885126 H 0.0 **** 0.06
5656 C 105.47927426515793 57.80236705378923 28.506539720594134 C 0.0 **** -0.24
5657 H 104.81435174388187 58.44567529246833 29.081265229035324 H 0.0 **** 0.06
5658 H 104.95700716205718 56.88358750259197 28.241398016388246 H 0.0 **** 0.06
5659 H 106.35775610959581 57.56071202527624 29.10559106478945 H 0.0 **** 0.06
5660 H 105.7901263370155 58.319991133353234 27.598979103139726 H 0.0 **** 0.06
5661 C 2.9407990496795264 56.95230426637507 36.13352750471 C 0.0 **** -0.24
5662 H 3.641824985668052 57.770686686655004 36.30331244952575 H 0.0 **** 0.06
5663 H 1.9863666274142702 57.35736098800012 35.795998517256265 H 0.0 **** 0.06
5664 H 2.793764958103168 56.401849789777636 37.062620500453306 H 0.0 **** 0.06
5665 H 3.3416958363756635 56.28269503950592 35.373727454939456 H 0.0 **** 0.06
5666 C 24.59176445441068 29.44718472122807 72.98186820167504 C 0.0 **** -0.24
5667 H 23.527296999131863 29.387738486798696 72.7540938164538 H 0.0 **** 0.06
5668 H 24.78115195030503 28.990519237594782 73.95307567268966 H 0.0 **** 0.06
5669 H 24.89980349051112 30.492773099183665 73.00533936982069 H 0.0 **** 0.06
5670 H 25.15756196907043 28.91890971278258 72.21486323556272 H 0.0 **** 0.06
5671 C 57.57570273171265 110.64055040236714 68.18501841131246 C 0.0 **** -0.24
5672 H 57.99673506570653 111.53502842706239 68.64529644351069 H 0.0 **** 0.06
5673 H 57.401549055558945 109.88591180797815 68.95322812340513 H 0.0 **** 0.06
5674 H 58.27287154013868 110.25050908622383 67.44373549309981 H 0.0 **** 0.06
5675 H 56.632286973924494 110.89150762679222 67.7014234634473 H 0.0 **** 0.06
5676 C 55.0724190749748 110.05796142523764 49.20591299096381 C 0.0 **** -0.24
5677 H 54.59310829744455 109.30693953291589 48.57769465300973 H 0.0 **** 0.06
5678 H 56.12836639800252 110.12990647347559 48.94418190527264 H 0.0 **** 0.06
5679 H 54.97626545687577 109.7693594474105 50.25266814522476 H 0.0 **** 0.06
5680 H 54.59162892266868 111.02326098400951 49.04861221684334 H 0.0 **** 0.06
5681 C 61.12305133845885 64.64243426275641 17.336799388262833 C 0.0 **** -0.24
5682 H 61.46038226359346 65.38348789090105 18.06258546295433 H 0.0 **** 0.06
5683 H 61.969713317177735 64.31627268504087 16.732378913922503 H 0.0 **** 0.06
5684 H 60.363921651885875 65.08572063177081 16.691658837196783 H 0.0 **** 0.06
5685 H 60.698864255502855 63.78700480320478 17.86198382199916 H 0.0 **** 0.06
5686 C 28.635979460999465 49.40877049993196 54.028466360245716 C 0.0 **** -0.24
5687 H 28.30749140846524 50.05250381341085 54.84429107920437 H 0.0 **** 0.06
5688 H 29.396350701675573 49.92448844950451 53.44193968526224 H 0.0 **** 0.06
5689 H 27.785623965570778 49.16700873409991 53.39047202363264 H 0.0 **** 0.06
5690 H 29.055526494744043 48.489072537172945 54.43883940379396 H 0.0 **** 0.06
5691 C 15.200904403856434 22.51676973702743 77.78157732612604 C 0.0 **** -0.24
5692 H 15.100097715376688 23.379129841561877 77.12203804106937 H 0.0 **** 0.06
5693 H 16.092733464180515 21.9532927616537 77.50733365880811 H 0.0 **** 0.06
5694 H 14.322446023862383 21.87940558536161 77.68187896052413 H 0.0 **** 0.06
5695 H 15.288297754337737 22.856621790464004 78.813029160718 H 0.0 **** 0.06
5696 C 48.39128298688077 40.38773252954502 12.233425517044338 C 0.0 **** -0.24
5697 H 48.89728970648406 40.01887473616807 13.125604922839585 H 0.0 **** 0.06
5698 H 47.88000615222367 39.56245058605171 11.739029310713107 H 0.0 **** 0.06
5699 H 49.124181270459104 40.8217674524617 11.553642662360772 H 0.0 **** 0.06
5700 H 47.6639529815661 41.1480790967145 12.517628112193535 H 0.0 **** 0.06
5701 C 73.22573125234345 76.20307793883481 108.75420714560994 C 0.0 **** -0.24
5702 H 72.93897151390212 75.58403180177413 109.60441400831877 H 0.0 **** 0.06
5703 H 72.64616842085906 77.12736865059355 108.766152864605 H 0.0 **** 0.06
5704 H 73.02901150096139 75.66248953832897 107.82905180025 H 0.0 **** 0.06
5705 H 74.28811204651703 76.43919430130853 108.81943834307688 H 0.0 **** 0.06
5706 C 78.45028345480813 37.98348892976061 90.40662931694106 C 0.0 **** -0.24
5707 H 78.37602081987589 37.198830420058954 89.654282323306 H 0.0 **** 0.06
5708 H 78.08608927215107 37.60515241509984 91.36293532008992 H 0.0 **** 0.06
5709 H 77.84776033491386 38.83878016212188 90.10123490492816 H 0.0 **** 0.06
5710 H 79.4911771797799 38.29074617038532 90.51047169006131 H 0.0 **** 0.06
5711 C 67.29985315301343 92.40610259941948 47.96146261005697 C 0.0 **** -0.24
5712 H 67.60123221167777 91.82026037931934 48.82993225933984 H 0.0 **** 0.06
5713 H 66.28968868930846 92.78690236505881 48.11408402628024 H 0.0 **** 0.06
5714 H 67.31958765224863 91.77386287517766 47.072680545117805 H 0.0 **** 0.06
5715 H 67.98703550228808 93.24104994175968 47.82939352218585 H 0.0 **** 0.06
5716 C 47.8158570148498 32.201753641375916 83.67331354646487 C 0.0 **** -0.24
5717 H 48.49928280038597 31.403641292469047 83.96174168254942 H 0.0 **** 0.06
5718 H 47.13749984395312 31.83682544382168 82.90144763612221 H 0.0 **** 0.06
5719 H 48.38671684081811 33.04587832893843 83.28594865637419 H 0.0 **** 0.06
5720 H 47.24081209138549 32.51892912080746 84.54302498809659 H 0.0 **** 0.06
5721 C 66.49430686888599 69.54480621101891 109.21662395624848 C 0.0 **** -0.24
5722 H 66.71346426378022 70.51455360430717 108.76941034471682 H 0.0 **** 0.06
5723 H 66.82385907758572 68.75188196392705 108.54468014288565 H 0.0 **** 0.06
5724 H 65.4210015045104 69.45656967151868 109.38373424790043 H 0.0 **** 0.06
5725 H 67.01873772942011 69.45685776431509 110.16791901384191 H 0.0 **** 0.06
5726 C 63.171415624802954 21.290204134374363 47.6861791857031 C 0.0 **** -0.24
5727 H 63.82072381583365 20.447298567898372 47.447423867534056 H 0.0 **** 0.06
5728 H 63.38023145194176 21.633222115752318 48.6998781664233 H 0.0 **** 0.06
5729 H 62.129639619067724 20.975864385261843 47.61597736657423 H 0.0 **** 0.06
5730 H 63.35551881413361 22.10034972019153 46.98180711771433 H 0.0 **** 0.06
5731 C 83.60903399101173 71.3148583849102 14.050538972777503 C 0.0 **** -0.24
5732 H 83.19047692139048 70.73993875874294 14.876224949439404 H 0.0 **** 0.06
5733 H 83.85532196783197 70.6425719248293 13.228641706914402 H 0.0 **** 0.06
5734 H 84.51176824062924 71.82663758259395 14.384778287329425 H 0.0 **** 0.06
5735 H 82.8792556208308 72.04994138165938 13.71315135400576 H 0.0 **** 0.06
5736 C 7.928778439602127 76.28702976659218 116.64626857304421 C 0.0 **** -0.24
5737 H 7.5912209827162656 75.29588513818072 116.34499594787786 H 0.0 **** 0.06
5738 H 8.880270599273246 76.20282410350472 117.17249201744971 H 0.0 **** 0.06
5739 H 7.187232894256908 76.73785563673056 117.30568968021043 H 0.0 **** 0.06
5740 H 8.05638928216186 76.91155418795273 115.76189664663912 H 0.0 **** 0.06
5741 C 83.3685761825839 82.73804371963283 31.791290917587645 C 0.0 **** -0.24
5742 H 83.38731009661947 81.98281090379942 31.005100456278825 H 0.0 **** 0.06
5743 H 82.91713764791172 83.65245388586266 31.405834970998143 H 0.0 **** 0.06
5744 H 84.38673799802302 82.9448925162614 32.119572818280034 H 0.0 **** 0.06
5745 H 82.78253732200272 82.36921659846357 32.63330754154035 H 0.0 **** 0.06
5746 C 1.296728694770195 87.15108753945131 39.22608562198312 C 0.0 **** -0.24
5747 H 1.1540872532584672 87.99389368859516 39.90312124451248 H 0.0 **** 0.06
5748 H 0.7692160518778905 87.34378192721778 38.29086727212527 H 0.0 **** 0.06
5749 H 0.9009386829856254 86.2452284372431 39.686235129247024 H 0.0 **** 0.06
5750 H 2.359752125877179 87.02250362911647 39.02528159578068 H 0.0 **** 0.06
5751 C 100.66754405141947 82.65009314383425 9.364963696989541 C 0.0 **** -0.24
5752 H 100.64723800997058 82.51485624765681 8.28320926191012 H 0.0 **** 0.06
5753 H 100.99878874519791 83.66286240846989 9.597481255926166 H 0.0 **** 0.06
5754 H 101.35641390909205 81.93134526710682 9.808681816659888 H 0.0 **** 0.06
5755 H 99.66754908308147 82.49289908525247 9.768921669704675 H 0.0 **** 0.06
5756 C 78.09208868579248 38.05509547010524 100.82306229155279 C 0.0 **** -0.24
5757 H 79.15987531078332 38.12320322367671 100.61528352579646 H 0.0 **** 0.06
5758 H 77.56808138207111 37.724814557053776 99.92565720922647 H 0.0 **** 0.06
5759 H 77.71719092415461 39.032940352797596 101.12332875411892 H 0.0 **** 0.06
5760 H 77.92348543786429 37.33821140202804 101.62641347314747 H 0.0 **** 0.06
5761 C 41.070637201238924 40.05703647678982 29.810151016578857 C 0.0 **** -0.24
5762 H 42.02672848302299 39.55129990230887 29.94700120016887 H 0.0 **** 0.06
5763 H 41.219474381053175 41.1357007806798 29.865898822354865 H 0.0 **** 0.06
5764 H 40.380015074813116 39.74387100314047 30.592668356366858 H 0.0 **** 0.06
5765 H 40.658121858995486 39.79595615801375 28.835270941463364 H 0.0 **** 0.06
5766 C 51.10945358188936 52.804258690648055 2.346030512301695 C 0.0 **** -0.24
5767 H 51.973982764916194 52.569831525464394 1.725332410211422 H 0.0 **** 0.06
5768 H 50.23472326912885 52.27774291063173 1.963832921252049 H 0.0 **** 0.06
5769 H 50.92583772820951 53.87897090703808 2.3223893649613956 H 0.0 **** 0.06
5770 H 51.30265869852214 52.49120850690048 3.3715144290462717 H 0.0 **** 0.06
5771 C 109.48963496401248 6.286792403331447 45.73331304198052 C 0.0 **** -0.24
5772 H 108.49045507184637 5.920547779583643 45.97058382405109 H 0.0 **** 0.06
5773 H 109.75773922267449 5.981365709530465 44.721719927760404 H 0.0 **** 0.06
5774 H 110.20615595224318 5.8702237440163145 46.4404644589242 H 0.0 **** 0.06
5775 H 109.5033590371175 7.375142435769575 45.799937975782726 H 0.0 **** 0.06
5776 C 18.455182476793723 86.81583128537787 99.31262506075049 C 0.0 **** -0.24
5777 H 17.876641918612705 86.40709044861359 100.14140051151136 H 0.0 **** 0.06
5778 H 17.831282742289105 87.4995349114632 98.73665157330865 H 0.0 **** 0.06
5779 H 18.793406387682495 86.00237399021881 98.67005301588978 H 0.0 **** 0.06
5780 H 19.319096393377507 87.35370127483009 99.7031152479293 H 0.0 **** 0.06
5781 C 83.36812540928807 44.18230752524566 59.27419918157447 C 0.0 **** -0.24
5782 H 83.02584733720519 43.20539265990238 59.61500558876035 H 0.0 **** 0.06
5783 H 82.85926682655551 44.96267705772856 59.84028161015657 H 0.0 **** 0.06
5784 H 83.14148992839725 44.295930239446726 58.214270325063616 H 0.0 **** 0.06
5785 H 84.44377376875926 44.26402320333355 59.427421458341435 H 0.0 **** 0.06
5786 C 113.13965339496548 66.1505960461067 70.5841937913147 C 0.0 **** -0.24
5787 H 113.9699242820854 65.49539824549629 70.84602581452893 H 0.0 **** 0.06
5788 H 112.20520849966141 65.59156984524972 70.63501130772678 H 0.0 **** 0.06
5789 H 113.28180419159838 66.52984917172634 69.57219073396814 H 0.0 **** 0.06
5790 H 113.10179536406798 66.98652292004604 71.283278939247 H 0.0 **** 0.06
5791 C 87.7067321210931 116.39176922017452 42.471302363335006 C 0.0 **** -0.24
5792 H 87.82224595395283 116.79456437307707 41.46520964021681 H 0.0 **** 0.06
5793 H 87.1861863714245 117.11762530404096 43.095173321300855 H 0.0 **** 0.06
5794 H 88.69066112703942 116.18681149289168 42.895219934143945 H 0.0 **** 0.06
5795 H 87.13037500987292 115.46778900132699 42.42803594239409 H 0.0 **** 0.06
5796 C 65.93038040769869 17.571003508176176 86.2126229962752 C 0.0 **** -0.24
5797 H 65.38683194732113 18.353529365634216 85.6828312067039 H 0.0 **** 0.06
5798 H 66.84559650192102 17.986116208993394 86.63562530870985 H 0.0 **** 0.06
5799 H 66.18061339981585 16.770009229824694 85.51737516238273 H 0.0 **** 0.06
5800 H 65.30621305794068 17.175165162312084 87.01419902450348 H 0.0 **** 0.06
5801 C 36.99262028057535 42.032398018871845 31.38616750453476 C 0.0 **** -0.24
5802 H 36.162842701086674 42.08077106047305 32.09084412841356 H 0.0 **** 0.06
5803 H 37.932578592999164 41.97318151154735 31.93611461183138 H 0.0 **** 0.06
5804 H 36.99192168694259 42.9251421146629 30.761488862983192 H 0.0 **** 0.06
5805 H 36.88302219543537 41.14787808336166 30.757680604888954 H 0.0 **** 0.06
5806 C 87.41001928820242 24.049252647968785 0.03708188587128802 C 0.0 **** -0.24
5807 H 87.08044918418648 24.355035122603113 1.0308573551187692 H 0.0 **** 0.06
5808 H 87.30511058583994 24.886631712045585 -0.6528843754826994 H 0.0 **** 0.06
5809 H 86.79733296909697 23.21531882277941 -0.3066110939073212 H 0.0 **** 0.06
5810 H 88.4538572304563 23.740085571477266 0.08011643447875372 H 0.0 **** 0.06
5811 C 3.1974412154997083 60.29683972867992 34.99847809333301 C 0.0 **** -0.24
5812 H 2.456031732481975 59.520540215705275 35.18900903727894 H 0.0 **** 0.06
5813 H 2.6941036130458826 61.211270324901626 34.68449097744998 H 0.0 **** 0.06
5814 H 3.874642416260329 59.96542185592529 34.21107812377636 H 0.0 **** 0.06
5815 H 3.7644759573098128 60.48736414223681 35.909663592446286 H 0.0 **** 0.06
5816 C 91.3357317349049 75.25184155648247 106.67407665267734 C 0.0 **** -0.24
5817 H 91.66361887672053 74.80594096093563 105.73457534959238 H 0.0 **** 0.06
5818 H 90.38765959742335 74.80490140682227 106.97566871870077 H 0.0 **** 0.06
5819 H 91.20504090986381 76.32555480286413 106.54005528710007 H 0.0 **** 0.06
5820 H 92.08539939056229 75.06975319829897 107.44425729038852 H 0.0 **** 0.06
5821 C 112.77622024052631 97.19263190076947 10.077483141972465 C 0.0 **** -0.24
5822 H 112.85350307123477 98.27975379057645 10.061852304948204 H 0.0 **** 0.06
5823 H 113.76384710916989 96.75592747171433 9.927628537029179 H 0.0 **** 0.06
5824 H 112.10924739741975 96.8654145142799 9.280096815721677 H 0.0 **** 0.06
5825 H 112.3775712972849 96.87124589448484 11.03990510836428 H 0.0 **** 0.06
5826 C 85.44798852132061 42.450361134651814 74.01659616075037 C 0.0 **** -0.24
5827 H 85.04571856121225 42.06045600370851 73.08198833443393 H 0.0 **** 0.06
5828 H 86.17655779255506 43.23341384004107 73.79986266395832 H 0.0 **** 0.06
5829 H 85.93352369244946 41.64443725212061 74.56722242096279 H 0.0 **** 0.06
5830 H 84.63769362556451 42.86358956180334 74.61665896916168 H 0.0 **** 0.06
5831 C 14.005319045638998 0.7563525981012162 85.98785307037721 C 0.0 **** -0.24
5832 H 13.898977753907388 1.1695791224216094 86.99106907803787 H 0.0 **** 0.06
5833 H 15.015582691498878 0.3640038426346024 85.86247000830556 H 0.0 **** 0.06
5834 H 13.826038580390133 1.539425495875463 85.25128446950285 H 0.0 **** 0.06
5835 H 13.283470983009067 -0.04686836439158526 85.8474027214933 H 0.0 **** 0.06
5836 C 92.9069384055141 71.37576219488608 86.09737153968524 C 0.0 **** -0.24
5837 H 92.79993765650113 72.37344724103616 85.67172573897008 H 0.0 **** 0.06
5838 H 92.06835984238444 70.75351535129067 85.78064614392997 H 0.0 **** 0.06
5839 H 92.91793177494839 71.4438095401648 87.18535485325191 H 0.0 **** 0.06
5840 H 93.8400539255187 70.9314237501984 85.75142685954498 H 0.0 **** 0.06
5841 C 37.2637346115509 43.36370878144595 9.536340050920728 C 0.0 **** -0.24
5842 H 37.040848435673055 42.297405035600434 9.511280253056626 H 0.0 **** 0.06
5843 H 38.33923241936669 43.51303605242259 9.435588587814152 H 0.0 **** 0.06
5844 H 36.92692273966171 43.78320642192921 10.484623495011931 H 0.0 **** 0.06
5845 H 36.748788414142254 43.86348968384232 8.715591943245869 H 0.0 **** 0.06
5846 C 58.45021724765439 84.34128429942808 11.146822107361487 C 0.0 **** -0.24
5847 H 58.944831224239806 83.50495526405854 11.642976165256954 H 0.0 **** 0.06
5848 H 57.92493164670543 83.97944260938948 10.263177060010065 H 0.0 **** 0.06
5849 H 59.19559107407417 85.07927127423721 10.850621094772663 H 0.0 **** 0.06
5850 H 57.737951928387304 84.7997664565222 11.832555416945155 H 0.0 **** 0.06
5851 C 104.54652944099519 94.24893868332947 66.52046370371201 C 0.0 **** -0.24
5852 H 103.46197985801507 94.28553154583173 66.41845329546558 H 0.0 **** 0.06
5853 H 104.84543921935978 93.2606708780803 66.8727118700354 H 0.0 **** 0.06
5854 H 104.8694564908842 95.00303086058122 67.23792941733163 H 0.0 **** 0.06
5855 H 105.00886449585607 94.44518387241916 65.55302166703913 H 0.0 **** 0.06
5856 C 53.73005636366372 6.028158718511705 22.289708509983626 C 0.0 **** -0.24
5857 H 53.90365486322668 5.2732555782249335 21.52196320513599 H 0.0 **** 0.06
5858 H 53.60180775965517 5.540381902939586 23.255809445249213 H 0.0 **** 0.06
5859 H 52.83220199907447 6.595136709330461 22.04546393092636 H 0.0 **** 0.06
5860 H 54.585708647135505 6.703189045649751 22.33397236741058 H 0.0 **** 0.06
5861 C 114.86577329591756 0.24328528139068517 87.1626121844302 C 0.0 **** -0.24
5862 H 114.16529174879446 0.2762388639049487 86.32838103806503 H 0.0 **** 0.06
5863 H 115.70680634390283 -0.40053334636084603 86.90540614691577 H 0.0 **** 0.06
5864 H 114.36177496013431 -0.15248651096454857 88.04492810907587 H 0.0 **** 0.06
5865 H 115.22833561227623 1.2499978067385378 87.37219383081191 H 0.0 **** 0.06
5866 C 54.54927784198148 65.99987779910367 115.38923562776534 C 0.0 **** -0.24
5867 H 55.57024544806421 66.0691060965971 115.76432433900115 H 0.0 **** 0.06
5868 H 54.345828851213724 66.84417582282123 114.7302915178031 H 0.0 **** 0.06
5869 H 53.85230600182379 66.01525005939243 116.22729465147788 H 0.0 **** 0.06
5870 H 54.42940965893118 65.06887438358339 114.83397865820288 H 0.0 **** 0.06
5871 C 25.888299675044436 108.82625883038644 55.773055520842604 C 0.0 **** -0.24
5872 H 25.842587580526214 109.90727812956497 55.64219824033506 H 0.0 **** 0.06
5873 H 24.938639429096668 108.46815285881365 56.170461473520874 H 0.0 **** 0.06
5874 H 26.690607717809115 108.57819663550416 56.468559630808926 H 0.0 **** 0.06
5875 H 26.082783608761474 108.35258162634736 54.81022379247656 H 0.0 **** 0.06
5876 C 33.90531111816139 28.77450661768222 69.76607739495557 C 0.0 **** -0.24
5877 H 33.9474165962062 28.796255939371008 68.67694926615678 H 0.0 **** 0.06
5878 H 34.33732057016932 27.841049094168966 70.12760040061886 H 0.0 **** 0.06
5879 H 32.86741914515396 28.84568092339987 70.09163145441386 H 0.0 **** 0.06
5880 H 34.47032890826677 29.61566474550915 70.16786200532044 H 0.0 **** 0.06
5881 C 40.419514571261345 46.84188294964204 10.121201796931032 C 0.0 **** -0.24
5882 H 40.60404083242594 46.25515427606404 11.021198185220356 H 0.0 **** 0.06
5883 H 40.3228396661558 47.89534722777622 10.387851504383605 H 0.0 **** 0.06
5884 H 39.49872407206739 46.500805348194014 9.647894393817666 H 0.0 **** 0.06
5885 H 41.2518325535076 46.71681214371991 9.428382157926578 H 0.0 **** 0.06
5886 C 35.44548861184177 14.33840598432019 72.06427509828825 C 0.0 **** -0.24
5887 H 36.33553922385585 14.906086714963863 72.33663054976336 H 0.0 **** 0.06
5888 H 35.71734955069991 13.296271286856864 71.89412541692275 H 0.0 **** 0.06
5889 H 35.0134369933412 14.754811986361744 71.1543875242977 H 0.0 **** 0.06
5890 H 34.716523257115966 14.396834152810982 72.87219192136507 H 0.0 **** 0.06
5891 C 89.14243248943589 116.30203823765738 18.113841836275625 C 0.0 **** -0.24
5892 H 88.4064486591553 116.91633252215712 17.595022691770254 H 0.0 **** 0.06
5893 H 88.69904786021547 115.33796009755993 18.36444594315745 H 0.0 **** 0.06
5894 H 89.45739830391588 116.80617835917681 19.026897243497757 H 0.0 **** 0.06
5895 H 90.00650353325307 116.14749827211254 17.46703766238697 H 0.0 **** 0.06
5896 C 100.41394244764348 3.9162930584908935 44.09318915642177 C 0.0 **** -0.24
5897 H 101.35731260787324 3.3888361380112855 43.9494778338688 H 0.0 **** 0.06
5898 H 100.48535531823964 4.913232791468175 43.657718874755034 H 0.0 **** 0.06
5899 H 100.2044804080146 3.999459165728368 45.15997454233775 H 0.0 **** 0.06
5900 H 99.61033678134274 3.363655138615158 43.60733405645851 H 0.0 **** 0.06
5901 C 84.27644706615445 29.77305913445528 51.398905368807924 C 0.0 **** -0.24
5902 H 84.94398805333151 29.625221939499966 52.248088615911676 H 0.0 **** 0.06
5903 H 83.24459007261405 29.620007494640305 51.716687315864206 H 0.0 **** 0.06
5904 H 84.52516381747773 29.059431841063372 50.61338322852663 H 0.0 **** 0.06
5905 H 84.39345920636762 30.787554632215034 51.01752101735168 H 0.0 **** 0.06
5906 C 81.79243546573497 115.58050414670147 34.21444631740883 C 0.0 **** -0.24
5907 H 81.64405420119672 114.50081851998753 34.18812271305865 H 0.0 **** 0.06
5908 H 82.12751645358932 115.87712525088465 35.208372179976266 H 0.0 **** 0.06
5909 H 80.85328980839896 116.08263938763712 33.98166828575978 H 0.0 **** 0.06
5910 H 82.54657355113645 115.86091706850365 33.477927881713526 H 0.0 **** 0.06
5911 C 89.02596266356403 58.88675008731212 84.55015410026945 C 0.0 **** -0.24
5912 H 89.0744545205815 59.863876251124196 84.07084324780197 H 0.0 **** 0.06
5913 H 88.14083723835031 58.83699990732586 85.18516664193191 H 0.0 **** 0.06
5914 H 89.91802505748231 58.735053678482046 85.15645415024076 H 0.0 **** 0.06
5915 H 88.96933749313683 58.11062626710728 83.78631614330826 H 0.0 **** 0.06
5916 C 67.60230005138703 92.22461797627915 85.2665812946783 C 0.0 **** -0.24
5917 H 66.72496309217883 92.67831447757209 84.80375691478793 H 0.0 **** 0.06
5918 H 67.55976196597837 91.14306583788024 85.14280174115092 H 0.0 **** 0.06
5919 H 67.61873502307 92.46914051037578 86.32867949539576 H 0.0 **** 0.06
5920 H 68.50411243739117 92.61127312245475 84.79052535384136 H 0.0 **** 0.06
5921 C 100.52625363744298 116.41829405580916 31.18529844883377 C 0.0 **** -0.24
5922 H 101.10091642570671 116.09880869361636 32.05452726493087 H 0.0 **** 0.06
5923 H 99.4860781115259 116.5741450572884 31.474318177711815 H 0.0 **** 0.06
5924 H 100.57703864896203 115.6506214785145 30.412752205389516 H 0.0 **** 0.06
5925 H 100.93952790726959 117.3501217255391 30.79881098656457 H 0.0 **** 0.06
5926 C 68.65842772220043 21.637697052396447 100.52674818823664 C 0.0 **** -0.24
5927 H 68.79840579133779 22.640218991290396 100.93126008846528 H 0.0 **** 0.06
5928 H 67.83673767276719 21.646760130405312 99.81000950575185 H 0.0 **** 0.06
5929 H 68.42645498363194 20.948891101960953 101.33848763120909 H 0.0 **** 0.06
5930 H 69.57328979774044 21.316595220719933 100.02857756441037 H 0.0 **** 0.06
5931 C 50.98920884660933 27.751023830480023 95.43830440226091 C 0.0 **** -0.24
5932 H 49.90507537653488 27.690739123125155 95.34795905018578 H 0.0 **** 0.06
5933 H 51.4440098516946 27.625950406599856 94.45508890533418 H 0.0 **** 0.06
5934 H 51.342180427952314 26.963403562604924 96.10443830363266 H 0.0 **** 0.06
5935 H 51.26594087313778 28.723100338668857 95.8455102079073 H 0.0 **** 0.06
5936 C 23.0935115273563 68.61495014080853 33.9472032084758 C 0.0 **** -0.24
5937 H 22.853906022442402 69.21424220501112 33.06905050733394 H 0.0 **** 0.06
5938 H 22.969659245228428 67.55766220850452 33.70974607205903 H 0.0 **** 0.06
5939 H 22.42358287071795 68.88456791050797 34.763879300442454 H 0.0 **** 0.06
5940 H 24.125006479453788 68.80236857464519 34.24542872122049 H 0.0 **** 0.06
5941 C 32.42577851908288 27.402581067342567 5.565396016012443 C 0.0 **** -0.24
5942 H 32.41899373133367 26.315243671127405 5.628722294228567 H 0.0 **** 0.06
5943 H 33.39814382837244 27.77896927998455 5.882172829487914 H 0.0 **** 0.06
5944 H 31.64931194591037 27.808606331811745 6.213347465851072 H 0.0 **** 0.06
5945 H 32.236033042904126 27.70792539623585 4.5354908906737705 H 0.0 **** 0.06
5946 C 49.75170163429206 0.9688652386478367 21.90933724884735 C 0.0 **** -0.24
5947 H 50.536013809886555 1.4302994405220772 21.31010624310116 H 0.0 **** 0.06
5948 H 49.2269495264093 0.22471057977551823 21.309907474624595 H 0.0 **** 0.06
5949 H 49.04728224854371 1.7349972099242734 22.237253773716162 H 0.0 **** 0.06
5950 H 50.1957919331841 0.48688092379492787 22.780691328107906 H 0.0 **** 0.06
5951 C 74.59334325647242 23.287749149795445 75.10599446902629 C 0.0 **** -0.24
5952 H 75.66000666002199 23.478707888387405 75.22703559632777 H 0.0 **** 0.06
5953 H 74.26127145030381 22.584408392024557 75.8693954372572 H 0.0 **** 0.06
5954 H 74.40909232548086 22.86666592384782 74.118166844293 H 0.0 **** 0.06
5955 H 74.04388967984349 24.22386704830579 75.21046490570308 H 0.0 **** 0.06
5956 C 79.21610767526752 60.055771567496656 114.07192120037871 C 0.0 **** -0.24
5957 H 80.02751677661709 60.134143988686354 113.34812840090994 H 0.0 **** 0.06
5958 H 78.2715407199563 60.302103467785294 113.5869832413369 H 0.0 **** 0.06
5959 H 79.39413358013579 60.74885888934315 114.89436069851797 H 0.0 **** 0.06
5960 H 79.17248150960671 59.037630141395375 114.45879167499832 H 0.0 **** 0.06
5961 C 112.45145822301387 59.99461717198534 29.41149564249588 C 0.0 **** -0.24
5962 H 112.34929462800673 59.833785387014785 28.337893877491922 H 0.0 **** 0.06
5963 H 113.4955810510578 59.871852565074676 29.699237426040327 H 0.0 **** 0.06
5964 H 111.83918778585354 59.27059057237838 29.947853995432183 H 0.0 **** 0.06
5965 H 112.12276901094141 61.00372644015599 29.659658576098252 H 0.0 **** 0.06
5966 C 43.368511974393954 23.205172722220823 27.594038653513337 C 0.0 **** -0.24
5967 H 42.6106149129196 23.064575827111412 28.36495145312027 H 0.0 **** 0.06
5968 H 44.15805120468775 23.85297064666628 27.97557193649115 H 0.0 **** 0.06
5969 H 42.91338400021985 23.663364150769723 26.71596285556592 H 0.0 **** 0.06
5970 H 43.79224085257482 22.237922017041967 27.321245765748984 H 0.0 **** 0.06
5971 C 94.84640287973238 52.92284632283779 51.53520226390586 C 0.0 **** -0.24
5972 H 95.6951043524343 52.333396477074594 51.87949508871779 H 0.0 **** 0.06
5973 H 94.62329190426584 53.70051383050318 52.266735446574614 H 0.0 **** 0.06
5974 H 93.9784472396151 52.274959491253846 51.41668825531764 H 0.0 **** 0.06
5975 H 95.08832776672267 53.383813030876006 50.57754000073734 H 0.0 **** 0.06
5976 C 15.896845842000715 79.76650223514093 32.13734255079714 C 0.0 **** -0.24
5977 H 14.997384083373333 80.33340891515101 31.898042944406626 H 0.0 **** 0.06
5978 H 16.776229559161976 80.3383027498841 31.83899462783606 H 0.0 **** 0.06
5979 H 15.881482762758623 78.81711848746494 31.60331131341607 H 0.0 **** 0.06
5980 H 15.932382698598161 79.57897921379268 33.21034403899796 H 0.0 **** 0.06
5981 C 52.39390059602022 59.00120480023026 72.23336369805295 C 0.0 **** -0.24
5982 H 52.78828079640226 58.68866975235364 71.2668198412571 H 0.0 **** 0.06
5983 H 52.030330966383474 58.12819159036204 72.77676328680099 H 0.0 **** 0.06
5984 H 51.57453117225896 59.70291121395966 72.08211973517305 H 0.0 **** 0.06
5985 H 53.18386565240053 59.48456916206326 72.80942372236257 H 0.0 **** 0.06
5986 C 76.41685613463375 13.218325040219355 12.81484913320375 C 0.0 **** -0.24
5987 H 76.60526939317427 12.580140650936528 11.95222289610794 H 0.0 **** 0.06
5988 H 77.11712059310099 14.054943151866198 12.806193460726092 H 0.0 **** 0.06
5989 H 76.55009105209416 12.641858594502153 13.730716429281415 H 0.0 **** 0.06
5990 H 75.39654977051816 13.59884919411789 12.769802019678025 H 0.0 **** 0.06
5991 C 64.8973172397121 32.492600606155776 58.86718438654204 C 0.0 **** -0.24
5992 H 65.68498187759019 33.233752827035104 59.00728735393424 H 0.0 **** 0.06
5993 H 64.24522363347748 32.48741590564578 59.74043348977086 H 0.0 **** 0.06
5994 H 65.34489611813018 31.506853038644074 58.74183357938811 H 0.0 **** 0.06
5995 H 64.31609830745248 32.744150367575884 57.98025078430552 H 0.0 **** 0.06
5996 C 105.76423990864026 34.539932245806526 116.32600556349655 C 0.0 **** -0.24
5997 H 106.4746266648713 34.23564515000916 115.5563205140769 H 0.0 **** 0.06
5998 H 105.98415760096631 35.56064191889115 116.63866820830165 H 0.0 **** 0.06
5999 H 105.84789903419647 33.87102425728186 117.18256684017355 H 0.0 **** 0.06
6000 H 104.7523279949437 34.491967496783175 115.92432459719663 H 0.0 **** 0.06
6001 C 109.79149362460481 13.62415481152209 106.5293510241195 C 0.0 **** -0.24
6002 H 110.55186026668122 12.845284010814225 106.59379371102071 H 0.0 **** 0.06
6003 H 109.19588358627414 13.476773004539211 105.62766020531654 H 0.0 **** 0.06
6004 H 110.27451810036837 14.600597152308012 106.49115832183443 H 0.0 **** 0.06
6005 H 109.1442183294788 13.572680096376416 107.40509701300039 H 0.0 **** 0.06
6006 C 101.53437147250358 39.47693296027586 115.02506476568641 C 0.0 **** -0.24
6007 H 101.39487410497969 38.41655976151512 115.23576392883126 H 0.0 **** 0.06
6008 H 100.87139116821947 40.063231931219235 115.6617677039552 H 0.0 **** 0.06
6009 H 101.30098768738955 39.67307625615308 113.97857597920165 H 0.0 **** 0.06
6010 H 102.5691388659207 39.75474161880234 115.22548870481302 H 0.0 **** 0.06
6011 C 106.9890910861335 44.86417662990928 44.88298376642916 C 0.0 **** -0.24
6012 H 106.34637131693967 45.402438840896735 44.18614513877114 H 0.0 **** 0.06
6013 H 107.98810648053691 45.30084340865966 44.867319129745596 H 0.0 **** 0.06
6014 H 107.04650939473109 43.81655497194558 44.58857260989893 H 0.0 **** 0.06
6015 H 106.5763524323059 44.93689063771109 45.888466912438076 H 0.0 **** 0.06
6016 C 67.14695321063866 112.28919809753326 82.03993016117073 C 0.0 **** -0.24
6017 H 67.10736756501473 113.3234613182785 81.69755090551627 H 0.0 **** 0.06
6018 H 67.64603343378022 111.67672539440395 81.28967618750545 H 0.0 **** 0.06
6019 H 66.13313579485822 111.91990591939029 82.19498985363902 H 0.0 **** 0.06
6020 H 67.70018207795002 112.23878219578162 82.9781870932186 H 0.0 **** 0.06
6021 C 104.72914430453687 36.9076069835084 49.23096859924604 C 0.0 **** -0.24
6022 H 105.62239161187136 36.55717302709403 49.749220780872776 H 0.0 **** 0.06
6023 H 104.82571769991137 36.70460312877396 48.163755846554096 H 0.0 **** 0.06
6024 H 104.61563392505761 37.979664228691966 49.38821857022731 H 0.0 **** 0.06
6025 H 103.85485424864561 36.38776150529759 49.622034463835206 H 0.0 **** 0.06
6026 C 111.34151389292559 112.13309517532139 49.047308955302924 C 0.0 **** -0.24
6027 H 111.64173149409824 113.002029139206 49.63279773928582 H 0.0 **** 0.06
6028 H 110.54084164524102 112.41421865473166 48.36334733707213 H 0.0 **** 0.06
6029 H 110.99030624965155 111.34814824328606 49.71686885019767 H 0.0 **** 0.06
6030 H 112.19606774618678 111.76847771052502 48.4768514089958 H 0.0 **** 0.06
6031 C 95.82915614219175 24.226357136685856 8.78867293776807 C 0.0 **** -0.24
6032 H 96.76851292751533 24.591793433676052 9.204201681424422 H 0.0 **** 0.06
6033 H 95.01136193061521 24.86461069014848 9.123498270733819 H 0.0 **** 0.06
6034 H 95.65667827526184 23.20434551819998 9.128453301407376 H 0.0 **** 0.06
6035 H 95.88170273036872 24.2433019872743 7.700646458000051 H 0.0 **** 0.06
6036 C 57.06715587800099 78.3573644541064 108.0502584614749 C 0.0 **** -0.24
6037 H 57.5649856710271 78.49970519711991 109.00962158190248 H 0.0 **** 0.06
6038 H 57.48973284342836 77.48887658609976 107.54648131685218 H 0.0 **** 0.06
6039 H 57.21175384792602 79.24342829147105 107.43096099471421 H 0.0 **** 0.06
6040 H 56.00093619623786 78.19957197806309 108.21407884041997 H 0.0 **** 0.06
6041 C 115.69108189310654 23.457582270963826 18.12210549542192 C 0.0 **** -0.24
6042 H 116.54620481436604 23.672420789057128 17.480782488015848 H 0.0 **** 0.06
6043 H 115.74029613651606 24.08271001618158 19.014603855027502 H 0.0 **** 0.06
6044 H 115.70864690973781 22.407177807539426 18.411658363913602 H 0.0 **** 0.06
6045 H 114.7694007152522 23.669291932717442 17.579849277684303 H 0.0 **** 0.06
6046 C 63.713922484015114 14.640153020701746 44.927563944912606 C 0.0 **** -0.24
6047 H 64.33592789453351 13.74766199676887 44.99958502991325 H 0.0 **** 0.06
6048 H 64.30694762340909 15.463855035949251 44.53012320645118 H 0.0 **** 0.06
6049 H 63.341487968903095 14.90401814874295 45.91728192401942 H 0.0 **** 0.06
6050 H 62.87277793166638 14.444441960857603 44.26256545969943 H 0.0 **** 0.06
6051 C 46.67731061964494 6.479316979289209 114.03063251657548 C 0.0 **** -0.24
6052 H 46.299694860859034 7.498570135139772 113.94209790007739 H 0.0 **** 0.06
6053 H 47.490948762646994 6.3312295312776 113.32024102328242 H 0.0 **** 0.06
6054 H 45.87452490488093 5.77491402909385 113.81616932514399 H 0.0 **** 0.06
6055 H 47.04372215510625 6.315324285958326 115.04357076534029 H 0.0 **** 0.06
6056 C 61.25384319786278 37.75956708469829 26.769631678821213 C 0.0 **** -0.24
6057 H 62.033438276430275 36.99946616869384 26.80174065403004 H 0.0 **** 0.06
6058 H 60.423723735490995 37.45694423311158 27.408086113219632 H 0.0 **** 0.06
6059 H 60.901623560940635 37.87537203469657 25.74465923897072 H 0.0 **** 0.06
6060 H 61.657554467922836 38.70857988028332 27.12321606781274 H 0.0 **** 0.06
6061 C 51.198680342233146 101.33693046009984 23.935361902197428 C 0.0 **** -0.24
6062 H 50.759061265814324 100.68346791506897 24.689388942618734 H 0.0 **** 0.06
6063 H 50.5049303567784 101.44780409609936 23.102354745064872 H 0.0 **** 0.06
6064 H 52.13139963357625 100.90053932177173 23.57747157598311 H 0.0 **** 0.06
6065 H 51.400440690384755 102.31417462778595 24.374412680316937 H 0.0 **** 0.06
6066 C 100.50731922206776 46.33085529897966 36.13930775091461 C 0.0 **** -0.24
6067 H 99.65801020705095 46.0715715052948 35.50610939542548 H 0.0 **** 0.06
6068 H 100.89844519776216 45.427585115093336 36.60844894679468 H 0.0 **** 0.06
6069 H 100.18597428926446 47.03114981542558 36.91005541900961 H 0.0 **** 0.06
6070 H 101.28527059692053 46.79092864240664 35.530963213726466 H 0.0 **** 0.06
6071 C 105.48317539764741 75.32386340488702 53.24420798192284 C 0.0 **** -0.24
6072 H 104.81373268631415 75.43042961093855 52.39028755275541 H 0.0 **** 0.06
6073 H 106.42935450746924 75.81883212403636 53.02736246961871 H 0.0 **** 0.06
6074 H 105.6605843833095 74.2655337634213 53.43513042788203 H 0.0 **** 0.06
6075 H 105.02593537649543 75.77994627368008 54.12266685055198 H 0.0 **** 0.06
6076 C 115.72105425371431 96.77467209470524 21.100376146496018 C 0.0 **** -0.24
6077 H 116.68518120377303 96.64947076366104 21.59273555683984 H 0.0 **** 0.06
6078 H 115.86330472573684 96.77609955740536 20.019381803073287 H 0.0 **** 0.06
6079 H 115.27527506720159 97.71963605440587 21.41010823786641 H 0.0 **** 0.06
6080 H 115.06111772036901 95.95273412388818 21.379332696026523 H 0.0 **** 0.06
6081 C 90.81158030060445 74.67943155007578 96.39985120677372 C 0.0 **** -0.24
6082 H 91.18824702621353 74.96086619830871 95.41619439951651 H 0.0 **** 0.06
6083 H 89.74465085140125 74.89611726746702 96.45559017636467 H 0.0 **** 0.06
6084 H 91.33959556772183 75.2475203320111 97.16599806099211 H 0.0 **** 0.06
6085 H 90.9748062855308 73.61382204486944 96.55970302337857 H 0.0 **** 0.06
6086 C 98.37301459262162 114.78494972506087 86.34760855916585 C 0.0 **** -0.24
6087 H 98.93625513149868 115.4559213138296 86.99629044974466 H 0.0 **** 0.06
6088 H 97.70950105824195 114.16707787226801 86.95144714970459 H 0.0 **** 0.06
6089 H 99.06417454088515 114.14753505137236 85.79708120689227 H 0.0 **** 0.06
6090 H 97.78185362628909 115.37271298639001 85.64418896844083 H 0.0 **** 0.06
6091 C 2.4964404181454825 7.938877738569673 56.10900480542521 C 0.0 **** -0.24
6092 H 2.561911805901218 8.910878226577722 56.60010015095583 H 0.0 **** 0.06
6093 H 3.3486707750648748 7.812460600409935 55.44002035808433 H 0.0 **** 0.06
6094 H 1.5723472851703377 7.885046111697662 55.53465219337985 H 0.0 **** 0.06
6095 H 2.5040344506518863 7.151013323102262 56.8619124577849 H 0.0 **** 0.06
6096 C 79.12270866371935 82.22999917378638 26.723016674861213 C 0.0 **** -0.24
6097 H 78.49420269499544 82.2920323151379 25.83441208102377 H 0.0 **** 0.06
6098 H 79.56961622770919 83.2046668512616 26.91878824787281 H 0.0 **** 0.06
6099 H 79.91037344897097 81.49466446432052 26.558736373310097 H 0.0 **** 0.06
6100 H 78.51600296685609 81.92863862135115 27.576443256614084 H 0.0 **** 0.06
6101 C 1.7886513566874385 92.74451787922516 26.569044894990128 C 0.0 **** -0.24
6102 H 1.2310146329343183 92.5556922559868 27.486047130012963 H 0.0 **** 0.06
6103 H 1.5455469238053183 93.73923822969965 26.194577720885917 H 0.0 **** 0.06
6104 H 1.5201567521579875 91.99890695529695 25.820391446314545 H 0.0 **** 0.06
6105 H 2.856666485931214 92.68470616603446 26.77462727459917 H 0.0 **** 0.06
6106 C 34.42642104646821 68.6298310260436 67.78389714861959 C 0.0 **** -0.24
6107 H 34.16644810918372 68.45467054998073 68.8274965938497 H 0.0 **** 0.06
6108 H 33.66726334295041 69.26059389137171 67.32120744313335 H 0.0 **** 0.06
6109 H 34.47785633214886 67.67612372425378 67.25765118019271 H 0.0 **** 0.06
6110 H 35.394938929342516 69.1273722347037 67.7293091671367 H 0.0 **** 0.06
6111 C 89.67748243454287 60.45941646256872 32.43732278485072 C 0.0 **** -0.24
6112 H 90.10675204195809 61.04182002409336 31.621859308693672 H 0.0 **** 0.06
6113 H 88.96105499015692 61.07326451921039 32.983469523522956 H 0.0 **** 0.06
6114 H 90.47226583454193 60.13989262951359 33.11280553496135 H 0.0 **** 0.06
6115 H 89.1717719491127 59.58370864027548 32.032293654779664 H 0.0 **** 0.06
6116 C 38.231742800146606 20.729279652159068 69.43300395624402 C 0.0 **** -0.24
6117 H 38.27506022671179 20.93872179767634 70.50262428785379 H 0.0 **** 0.06
6118 H 38.68938397191701 21.551193049791124 68.8833405754556 H 0.0 **** 0.06
6119 H 37.191281472177934 20.62133473813373 69.12694338513654 H 0.0 **** 0.06
6120 H 38.76982880391154 19.80579771006219 69.22257003446828 H 0.0 **** 0.06
6121 C 49.27859978238632 23.524384420431744 8.4171444411393 C 0.0 **** -0.24
6122 H 49.6632265273918 24.00484026025444 9.316238631286978 H 0.0 **** 0.06
6123 H 50.068224565008876 23.475543815713564 7.666359952445845 H 0.0 **** 0.06
6124 H 48.441534528122645 24.103114756811692 8.026060116034273 H 0.0 **** 0.06
6125 H 48.942531987121896 22.516244600542066 8.65794821544489 H 0.0 **** 0.06
6126 C 11.949935907134272 85.13267135086613 100.90099824193652 C 0.0 **** -0.24
6127 H 11.41403637621529 85.38003851611865 101.816958448826 H 0.0 **** 0.06
6128 H 12.998566409045448 85.41258353450769 101.00649356618922 H 0.0 **** 0.06
6129 H 11.511429631904377 85.67810361940599 100.06473338464863 H 0.0 **** 0.06
6130 H 11.87641556890565 84.06110773447045 100.71471846375695 H 0.0 **** 0.06
6131 C 20.125562633986075 39.74530627950011 34.17716680372918 C 0.0 **** -0.24
6132 H 21.124312766561985 39.85446082539997 33.75499575248705 H 0.0 **** 0.06
6133 H 19.424992799046798 40.365381924220515 33.616940843075234 H 0.0 **** 0.06
6134 H 20.136014926370773 40.060850024268746 35.220419820586464 H 0.0 **** 0.06
6135 H 19.816730908007273 38.70150979784282 34.11638141833419 H 0.0 **** 0.06
6136 C 108.51649814753702 106.23811008739816 55.9879228981861 C 0.0 **** -0.24
6137 H 107.71730809426182 106.25707992195868 56.729030435020064 H 0.0 **** 0.06
6138 H 108.3230060386899 106.99310939523951 55.22539364539995 H 0.0 **** 0.06
6139 H 108.55719074903905 105.25337851727886 55.5223363719015 H 0.0 **** 0.06
6140 H 109.46858383147895 106.4494890533548 56.47571261272361 H 0.0 **** 0.06
6141 C 66.38529089714027 50.31689304654955 103.89757219103109 C 0.0 **** -0.24
6142 H 66.86310664542648 49.36412454040206 103.66786086644294 H 0.0 **** 0.06
6143 H 66.95691730876496 51.127770927698236 103.44681589830424 H 0.0 **** 0.06
6144 H 66.3495106925746 50.45362525605913 104.97850052415217 H 0.0 **** 0.06
6145 H 65.37161601679858 50.319837502771435 103.49742533435989 H 0.0 **** 0.06
6146 C 29.2334963294944 54.57645266254943 37.42337958093668 C 0.0 **** -0.24
6147 H 28.600095833362317 55.24336233490746 38.00805491709309 H 0.0 **** 0.06
6148 H 29.467139695939153 55.04330512549919 36.466125923188656 H 0.0 **** 0.06
6149 H 28.708944775268463 53.63650343228218 37.25054699844816 H 0.0 **** 0.06
6150 H 30.15703104799357 54.38177556697454 37.9679816164504 H 0.0 **** 0.06
6151 C 61.32715515224715 57.15870833949032 39.825812587320684 C 0.0 **** -0.24
6152 H 60.663011898742646 56.32065400252219 39.6167490183345 H 0.0 **** 0.06
6153 H 62.22332284538846 56.79380650291927 40.32773995898958 H 0.0 **** 0.06
6154 H 60.81646295535757 57.875917561450336 40.467825309214845 H 0.0 **** 0.06
6155 H 61.60653681454445 57.64252040657982 38.890071856837665 H 0.0 **** 0.06
6156 C 93.00271927613306 93.44368797957503 98.71338365698398 C 0.0 **** -0.24
6157 H 93.60698824382351 93.22856017629795 99.59444664250032 H 0.0 **** 0.06
6158 H 91.95295933577094 93.24983576481645 98.9364316847383 H 0.0 **** 0.06
6159 H 93.32370248542108 92.8072955613307 97.88865616238408 H 0.0 **** 0.06
6160 H 93.127788684119 94.49010456688197 98.43477112474176 H 0.0 **** 0.06
6161 C 98.60214736154691 14.495956513633274 80.5775855116616 C 0.0 **** -0.24
6162 H 98.232029115178 15.51954998675717 80.6399704535363 H 0.0 **** 0.06
6163 H 97.7883194559968 13.833241093389233 80.28489741266503 H 0.0 **** 0.06
6164 H 98.98951604650682 14.190198856200425 81.54990015754993 H 0.0 **** 0.06
6165 H 99.3995222777427 14.443284630637237 79.8367442048858 H 0.0 **** 0.06
6166 C 42.779073933136125 35.097028426500096 54.26088625305283 C 0.0 **** -0.24
6167 H 42.32878831596867 35.1792788016478 53.271828274955624 H 0.0 **** 0.06
6168 H 42.25930601683775 34.32783658724521 54.83378965237205 H 0.0 **** 0.06
6169 H 42.69822153214128 36.05259517185254 54.77753987114923 H 0.0 **** 0.06
6170 H 43.82999160521515 34.826174184790574 54.16020864238416 H 0.0 **** 0.06
6171 C 64.11177827863989 98.06944510256818 79.48034423467345 C 0.0 **** -0.24
6172 H 63.9835216146548 97.35702110998727 80.29482886095357 H 0.0 **** 0.06
6173 H 63.361285748278824 97.88292830115347 78.71285068406002 H 0.0 **** 0.06
6174 H 65.10831341685599 97.95442087112863 79.05186878107713 H 0.0 **** 0.06
6175 H 63.99697861577038 99.08366774547679 79.86356540724381 H 0.0 **** 0.06
6176 C 113.63717613808457 19.191777122205863 67.15918129227751 C 0.0 **** -0.24
6177 H 114.37112583546241 19.3862705826659 66.37661874018323 H 0.0 **** 0.06
6178 H 113.20345167582757 18.202437179302862 67.01349829628779 H 0.0 **** 0.06
6179 H 112.85055992354907 19.944578624708754 67.11307527290418 H 0.0 **** 0.06
6180 H 114.12563558377661 19.235982379481854 68.13329797350275 H 0.0 **** 0.06
6181 C 75.84751564767271 41.57580893292834 21.97647701596021 C 0.0 **** -0.24
6182 H 75.02883923888945 40.88342050289518 21.780124858247376 H 0.0 **** 0.06
6183 H 75.61742808650317 42.54504081380193 21.531675529597354 H 0.0 **** 0.06
6184 H 76.76606247210401 41.18478704337912 21.54065997966124 H 0.0 **** 0.06
6185 H 75.97586289084842 41.69085972117321 23.052585860067087 H 0.0 **** 0.06
6186 C 84.1123210939376 18.72191367932416 28.005275802353637 C 0.0 **** -0.24
6187 H 84.15781286677296 17.704000819803966 28.39317128797859 H 0.0 **** 0.06
6188 H 83.88771263789525 18.694644370914475 26.93860976189484 H 0.0 **** 0.06
6189 H 85.07236457320187 19.21361739453583 28.16288909808948 H 0.0 **** 0.06
6190 H 83.33071214670926 19.274164025320616 28.52744627308283 H 0.0 **** 0.06
6191 C 42.644267852586296 116.57613676831538 77.47562864988302 C 0.0 **** -0.24
6192 H 41.58607564818692 116.37301716824872 77.64221103522036 H 0.0 **** 0.06
6193 H 42.86554008330495 117.60333182244548 77.7657439631381 H 0.0 **** 0.06
6194 H 42.87862134638641 116.43755931732125 76.4202246089969 H 0.0 **** 0.06
6195 H 43.24386299551887 115.89088975314898 78.07466466513938 H 0.0 **** 0.06
6196 C 78.68485081432854 59.879013105680336 49.28808369512936 C 0.0 **** -0.24
6197 H 79.13175432465496 58.92076468474652 49.5499139636842 H 0.0 **** 0.06
6198 H 78.51512533690072 60.46043352148819 50.19498093202407 H 0.0 **** 0.06
6199 H 77.7341030048926 59.7107954738976 48.78173754311868 H 0.0 **** 0.06
6200 H 79.35673506574372 60.42435168176143 48.6259732030069 H 0.0 **** 0.06
6201 C 114.01924566957686 31.05131857875567 90.02856667441236 C 0.0 **** -0.24
6202 H 114.88448591711742 31.71159538690854 89.98447896858218 H 0.0 **** 0.06
6203 H 113.1104192391578 31.632498317317648 89.87199846359854 H 0.0 **** 0.06
6204 H 113.97965306126038 30.571050739174844 91.00641441860145 H 0.0 **** 0.06
6205 H 114.10270092092135 30.290499053878598 89.2527117800544 H 0.0 **** 0.06
6206 C 79.96114405432567 108.68913244579136 108.06262915200222 C 0.0 **** -0.24
6207 H 80.81738904191593 108.33894949512461 108.63902084369491 H 0.0 **** 0.06
6208 H 80.18120638979721 109.67294986030993 107.64692025291225 H 0.0 **** 0.06
6209 H 79.08850318171386 108.75513667273214 108.71299240206932 H 0.0 **** 0.06
6210 H 79.75808390203179 107.98834650590737 107.25214554881143 H 0.0 **** 0.06
6211 C 36.786993644349664 69.10784912911396 74.31003413115567 C 0.0 **** -0.24
6212 H 37.57188542593154 68.89077832753776 73.58481197018372 H 0.0 **** 0.06
6213 H 35.8315517570895 69.20154852234745 73.79362421438302 H 0.0 **** 0.06
6214 H 37.01619909319507 70.04261378439426 74.82292977454483 H 0.0 **** 0.06
6215 H 36.73009986699918 68.29865061344023 75.03701537916675 H 0.0 **** 0.06
6216 C 16.764088230775712 32.216546559713265 99.96809702816546 C 0.0 **** -0.24
6217 H 16.564479197631385 32.94529107539894 99.18311386117205 H 0.0 **** 0.06
6218 H 16.44577319893392 32.62185905430391 100.92896191549971 H 0.0 **** 0.06
6219 H 17.83134162009938 31.999660903537432 100.00041920344188 H 0.0 **** 0.06
6220 H 16.212769311399228 31.299503651769186 99.76005202044985 H 0.0 **** 0.06
6221 C 29.00105410437527 13.323938984559973 2.506963992572082 C 0.0 **** -0.24
6222 H 29.560755421251883 13.68494030331675 3.3691973641086577 H 0.0 **** 0.06
6223 H 29.68822830177737 12.876794106186324 1.7891973167302808 H 0.0 **** 0.06
6224 H 28.478631441626646 14.158473074329649 2.038647418006647 H 0.0 **** 0.06
6225 H 28.275511981489387 12.577492061496969 2.830623688256452 H 0.0 **** 0.06
6226 C 112.95371830389271 70.63325780666466 79.25249738943967 C 0.0 **** -0.24
6227 H 113.82179262965428 70.39685485614149 78.63767828037444 H 0.0 **** 0.06
6228 H 112.11110078479444 70.88645138431542 78.60936779734826 H 0.0 **** 0.06
6229 H 113.1855807951758 71.48011494963092 79.89819678966552 H 0.0 **** 0.06
6230 H 112.69692096939815 69.76841128399869 79.86528582163925 H 0.0 **** 0.06
6231 C 115.13527068814004 88.79441489998737 87.16618241842204 C 0.0 **** -0.24
6232 H 116.2055892444418 88.62184894460219 87.05447239597743 H 0.0 **** 0.06
6233 H 114.6781777902251 88.88938223610643 86.1816854911153 H 0.0 **** 0.06
6234 H 114.9723037783509 89.71175604970784 87.73297694716788 H 0.0 **** 0.06
6235 H 114.68578032640394 87.95459153946283 87.69677939176051 H 0.0 **** 0.06
6236 C 17.866742342155565 110.7072464832081 24.27072581210436 C 0.0 **** -0.24
6237 H 17.17642178413594 111.53113030890792 24.09123792470831 H 0.0 **** 0.06
6238 H 17.335926215902465 109.760127880553 24.167228760683514 H 0.0 **** 0.06
6239 H 18.27451192346554 110.78798511790627 25.27875768378823 H 0.0 **** 0.06
6240 H 18.6801094451181 110.74974262546503 23.545678879237443 H 0.0 **** 0.06
6241 C 77.23683083071506 46.17907803413124 41.56096207681509 C 0.0 **** -0.24
6242 H 76.34095532627586 45.61956085092339 41.82802667971609 H 0.0 **** 0.06
6243 H 77.96576350520942 46.10392644822497 42.367603468535435 H 0.0 **** 0.06
6244 H 76.97656172230936 47.22611236912218 41.40121809031265 H 0.0 **** 0.06
6245 H 77.66250924118816 45.767169394617895 40.645438082525985 H 0.0 **** 0.06
6246 C 18.442829345181394 41.70092370653887 66.4549902859211 C 0.0 **** -0.24
6247 H 18.47097259967674 41.583716833199134 67.53856469678593 H 0.0 **** 0.06
6248 H 18.25065682259435 42.744681874789904 66.20693069428648 H 0.0 **** 0.06
6249 H 17.650211200897616 41.076645766768564 66.04209863368774 H 0.0 **** 0.06
6250 H 19.401043905901986 41.39711975589148 66.03281613307814 H 0.0 **** 0.06
6251 C 45.69826047087733 38.53936475861312 93.6098393903655 C 0.0 **** -0.24
6252 H 46.53625833083266 38.19326591916433 94.21562416849764 H 0.0 **** 0.06
6253 H 44.83103253946914 38.701781528062384 94.24941381089019 H 0.0 **** 0.06
6254 H 45.46056210847904 37.787346021011246 92.85735265842379 H 0.0 **** 0.06
6255 H 45.96781877851715 39.47331799354549 93.1171410905857 H 0.0 **** 0.06
6256 C 77.17051755324474 105.86507330906585 116.32124163443774 C 0.0 **** -0.24
6257 H 77.87082353249988 105.98629510179956 117.14689816345503 H 0.0 **** 0.06
6258 H 77.7206150696083 105.64467139694437 115.40647736006298 H 0.0 **** 0.06
6259 H 76.59993288750539 106.7837919006057 116.19015701253477 H 0.0 **** 0.06
6260 H 76.48907718373027 105.0423238443764 116.54168076228507 H 0.0 **** 0.06
6261 C 54.49971190973053 89.34585672338542 90.07374625803715 C 0.0 **** -0.24
6262 H 54.2319349230851 90.09802575404944 89.33195304035203 H 0.0 **** 0.06
6263 H 55.4302202213403 89.63328497674462 90.56350258440017 H 0.0 **** 0.06
6264 H 54.63060562200099 88.3814359778325 89.58100541435408 H 0.0 **** 0.06
6265 H 53.70566719160415 89.26956928023537 90.8163815395325 H 0.0 **** 0.06
6266 C 50.977398910772635 74.55983973289881 3.0354561472437087 C 0.0 **** -0.24
6267 H 51.39699686766666 73.76819305796795 2.4141968629329167 H 0.0 **** 0.06
6268 H 50.336297623820926 75.19773621804083 2.426213800362053 H 0.0 **** 0.06
6269 H 51.786381776559296 75.15460117869284 3.4597903545967554 H 0.0 **** 0.06
6270 H 50.39058211845514 74.11700420362567 3.8405131259183545 H 0.0 **** 0.06
6271 C 84.46969193567423 38.05979795506016 73.92003134605409 C 0.0 **** -0.24
6272 H 84.37316439167773 38.5406677970002 74.89324024944216 H 0.0 **** 0.06
6273 H 83.72331841597804 38.4672139725659 73.23742693958485 H 0.0 **** 0.06
6274 H 84.31699765041913 36.986578225207495 74.02793294006693 H 0.0 **** 0.06
6275 H 85.46669313736368 38.246234859220465 73.52065075077525 H 0.0 **** 0.06
6276 C 70.3564804220091 48.8875131234833 83.62660939705896 C 0.0 **** -0.24
6277 H 71.30439403455966 48.4368136873905 83.92074503170747 H 0.0 **** 0.06
6278 H 70.03019070764219 48.45963899399692 82.67899519142043 H 0.0 **** 0.06
6279 H 70.48658571233523 49.96418304032903 83.51305974612083 H 0.0 **** 0.06
6280 H 69.60729381971487 48.69057202807744 84.39215396817497 H 0.0 **** 0.06
6281 C 34.61091859858277 82.78026683186249 112.47201897113786 C 0.0 **** -0.24
6282 H 35.28686045589933 83.09065728396155 113.26880146217194 H 0.0 **** 0.06
6283 H 33.69201723358839 83.36541927642747 112.52675434019606 H 0.0 **** 0.06
6284 H 34.37557830629538 81.72235265563233 112.58679913887067 H 0.0 **** 0.06
6285 H 35.08897112581428 82.94483486573938 111.50605771763102 H 0.0 **** 0.06
6286 C 67.36903999144573 88.9057818674707 95.26481482245933 C 0.0 **** -0.24
6287 H 67.52031221966553 89.5331103587776 96.1437202146812 H 0.0 **** 0.06
6288 H 67.83500491703978 89.3753960239415 94.39828252486572 H 0.0 **** 0.06
6289 H 66.30084817717625 88.78619234804563 95.08438326266563 H 0.0 **** 0.06
6290 H 67.82081722441512 87.92815337979567 95.43516411716956 H 0.0 **** 0.06
6291 C 31.606166197791396 39.928899160629264 26.54328848774753 C 0.0 **** -0.24
6292 H 31.60688017459566 40.78145741514721 27.222356872842028 H 0.0 **** 0.06
6293 H 32.419268950753235 40.037354506576506 25.824303496887552 H 0.0 **** 0.06
6294 H 30.65507413069605 39.889086631687796 26.01310572819628 H 0.0 **** 0.06
6295 H 31.74388680524973 39.00984043365561 27.112286743333215 H 0.0 **** 0.06
6296 C 46.67219647046764 79.63106670363169 112.30636390760786 C 0.0 **** -0.24
6297 H 46.54117252433218 79.89109496173609 111.25612537410487 H 0.0 **** 0.06
6298 H 46.68839055425889 78.54654328635723 112.41200313277113 H 0.0 **** 0.06
6299 H 45.845906608357865 80.04078000130409 112.88730025784055 H 0.0 **** 0.06
6300 H 47.61262676399221 80.04697951437339 112.66953112898862 H 0.0 **** 0.06
6301 C 42.7581286097257 41.70234843187404 62.5721021526005 C 0.0 **** -0.24
6302 H 42.66440898059716 40.95097454390077 61.78915146731152 H 0.0 **** 0.06
6303 H 42.10216868707127 42.543825479804184 62.34901713566483 H 0.0 **** 0.06
6304 H 43.791153268752 42.048913076218355 62.62228245667236 H 0.0 **** 0.06
6305 H 42.47510391572834 41.265460367647904 63.53037605632847 H 0.0 **** 0.06
6306 C 111.78501943301892 0.14881537397097588 114.95136813029266 C 0.0 **** -0.24
6307 H 110.8040952878529 0.3045396088260617 115.40209957753541 H 0.0 **** 0.06
6308 H 112.38337584212853 1.0526817882230546 115.06493778539239 H 0.0 **** 0.06
6309 H 111.66577762281855 -0.07878166179293089 113.89283147369308 H 0.0 **** 0.06
6310 H 112.284973660734 -0.6833112682255376 115.44795753647414 H 0.0 **** 0.06
6311 C 111.3879164278149 100.70875295055924 34.05606965027394 C 0.0 **** -0.24
6312 H 110.70567697045331 100.83210064168048 34.897210328081286 H 0.0 **** 0.06
6313 H 112.32965831642338 100.29178383746836 34.412145352994486 H 0.0 **** 0.06
6314 H 111.57081997223366 101.67798550566312 33.59239034407645 H 0.0 **** 0.06
6315 H 110.94357001955237 100.03389568976885 33.3249131175472 H 0.0 **** 0.06
6316 C 50.731219238013296 16.38803636166773 2.349914809480566 C 0.0 **** -0.24
6317 H 49.659990035049816 16.55684036033091 2.2392659064057057 H 0.0 **** 0.06
6318 H 51.26786079017967 16.935725352591817 1.5745886615845421 H 0.0 **** 0.06
6319 H 50.942517913757115 15.322091919588786 2.253980474842052 H 0.0 **** 0.06
6320 H 51.054258298389755 16.73534307684605 3.3312428735267474 H 0.0 **** 0.06
6321 C 74.20036063483042 25.341450037776156 56.561923243517896 C 0.0 **** -0.24
6322 H 75.00401815803102 26.064148255807616 56.4207537162369 H 0.0 **** 0.06
6323 H 74.22897982879434 24.60527839512953 55.75813828330129 H 0.0 **** 0.06
6324 H 73.24071509222759 25.8590164643008 56.547245210524125 H 0.0 **** 0.06
6325 H 74.32853475786553 24.839398330326624 57.52112576056837 H 0.0 **** 0.06
6326 C 93.60096946383595 87.14196308158898 92.84127856182536 C 0.0 **** -0.24
6327 H 93.39046604994684 86.07635662044049 92.93532738505698 H 0.0 **** 0.06
6328 H 92.6620826960114 87.693455415887 92.77775770170399 H 0.0 **** 0.06
6329 H 94.18736463778276 87.31751406492407 91.93906098791439 H 0.0 **** 0.06
6330 H 94.16327529191733 87.47949580875934 93.71110710740228 H 0.0 **** 0.06
6331 C 39.625380140534816 111.14690651305487 21.741490662962136 C 0.0 **** -0.24
6332 H 38.90655412564756 111.19645555536033 20.924176791945882 H 0.0 **** 0.06
6333 H 39.81889389801072 112.15170077832049 22.116302406312627 H 0.0 **** 0.06
6334 H 40.55559428247799 110.70814435673229 21.380577399644267 H 0.0 **** 0.06
6335 H 39.22033476155906 110.53068350352612 22.544152737715848 H 0.0 **** 0.06
6336 C 56.86255577384139 80.15109116255917 85.275455493749 C 0.0 **** -0.24
6337 H 56.72238809430536 79.77979712673815 86.29115465527173 H 0.0 **** 0.06
6338 H 55.984036409802655 79.9091607112843 84.67736574689988 H 0.0 **** 0.06
6339 H 57.74284272699791 79.6813410959324 84.83549097194003 H 0.0 **** 0.06
6340 H 57.0007420107998 81.23123907698678 85.30025297466688 H 0.0 **** 0.06
6341 C 76.71482953010221 49.986974187234466 70.59672436521541 C 0.0 **** -0.24
6342 H 76.80615404942384 50.85395915913903 69.94235454487591 H 0.0 **** 0.06
6343 H 76.77256545632184 49.0753170549145 70.00084360212381 H 0.0 **** 0.06
6344 H 75.75683598887792 50.02241185762257 71.11472288540762 H 0.0 **** 0.06
6345 H 77.52435847658862 49.99610306449894 71.32660279072633 H 0.0 **** 0.06
6346 C 93.57593013555208 22.336280569724693 22.41332741445305 C 0.0 **** -0.24
6347 H 93.7341660560121 22.497222456805503 23.480123608457916 H 0.0 **** 0.06
6348 H 94.52846383582892 22.415815700657504 21.889185550407063 H 0.0 **** 0.06
6349 H 92.88574527144578 23.088147939130693 22.03125641255488 H 0.0 **** 0.06
6350 H 93.15533996527847 21.342924516499465 22.255385481362765 H 0.0 **** 0.06
6351 C 64.05291222876829 67.50950779809773 47.96294611477708 C 0.0 **** -0.24
6352 H 63.312113307174734 67.9619313938224 48.62224863701533 H 0.0 **** 0.06
6353 H 65.02421706814886 67.97458915625353 48.13439366972395 H 0.0 **** 0.06
6354 H 63.75486114410541 67.65939933610267 46.925098793638654 H 0.0 **** 0.06
6355 H 64.11926254281201 66.44181109689981 48.171618932682065 H 0.0 **** 0.06
6356 C 32.235492823386366 93.81459958401172 92.68361717554245 C 0.0 **** -0.24
6357 H 31.363495951255544 93.90705824313787 93.33137317942618 H 0.0 **** 0.06
6358 H 32.6991556294971 94.7928443510342 92.55699594458778 H 0.0 **** 0.06
6359 H 31.92629382710453 93.42916040242199 91.71145893204314 H 0.0 **** 0.06
6360 H 32.95165308279336 93.12778823470606 93.13595298273657 H 0.0 **** 0.06
6361 C 9.562363943806414 100.2650126838677 93.84621163837457 C 0.0 **** -0.24
6362 H 9.585229147877058 99.63952612690667 94.73900431156315 H 0.0 **** 0.06
6363 H 8.9065242716573 101.11837128503865 94.01918388183546 H 0.0 **** 0.06
6364 H 9.187484514088254 99.68280445659994 93.00477362837174 H 0.0 **** 0.06
6365 H 10.568973899666581 100.61835554764176 93.62442765282546 H 0.0 **** 0.06
6366 C 80.78774945906252 14.644295483337629 55.54450721511781 C 0.0 **** -0.24
6367 H 80.58759946737365 13.808124138640906 54.8735686905212 H 0.0 **** 0.06
6368 H 80.24235946498715 14.498694335744446 56.4769894023736 H 0.0 **** 0.06
6369 H 80.46511887914272 15.57308456058962 55.074235684927196 H 0.0 **** 0.06
6370 H 81.85722909208536 14.694629402230674 55.75271832803627 H 0.0 **** 0.06
6371 C 57.72417310706996 44.82804698661546 69.04789371647527 C 0.0 **** -0.24
6372 H 57.62538793715564 43.95195956947923 68.40758969095646 H 0.0 **** 0.06
6373 H 57.07364722122301 44.71917748779547 69.91606334691764 H 0.0 **** 0.06
6374 H 57.43938550203373 45.72024886874399 68.48920430890774 H 0.0 **** 0.06
6375 H 58.758568628536665 44.92168988400873 69.3783659084225 H 0.0 **** 0.06
6376 C 96.50370580997784 114.13550509910873 107.74594788538892 C 0.0 **** -0.24
6377 H 95.8254534579124 114.21633624086019 108.59595441179714 H 0.0 **** 0.06
6378 H 96.2976284821292 114.9413197896306 107.04146950791724 H 0.0 **** 0.06
6379 H 96.35627961092311 113.1750686001889 107.25401994327186 H 0.0 **** 0.06
6380 H 97.53400242670159 114.21159435636615 108.09448957761086 H 0.0 **** 0.06
6381 C 29.934550312588357 107.27945158968421 28.787612962680555 C 0.0 **** -0.24
6382 H 29.455615432903812 108.19122686933679 28.430730370939017 H 0.0 **** 0.06
6383 H 29.875050458315997 106.51210232243358 28.015441437462044 H 0.0 **** 0.06
6384 H 29.426246660440086 106.9295309667732 29.68625690559759 H 0.0 **** 0.06
6385 H 30.980197663831007 107.48423366580272 29.017473542536266 H 0.0 **** 0.06
6386 C 89.70733444313026 106.77143941937925 98.52994680275782 C 0.0 **** -0.24
6387 H 89.1155589707368 105.86407067460877 98.6470521652056 H 0.0 **** 0.06
6388 H 89.06755317655944 107.64301796806632 98.67178751234911 H 0.0 **** 0.06
6389 H 90.13920722266806 106.79640256453729 97.52932263484541 H 0.0 **** 0.06
6390 H 90.50724419919106 106.78182422180487 99.27075686050188 H 0.0 **** 0.06
6391 C 74.31841547714723 107.85191076480629 64.99638319395666 C 0.0 **** -0.24
6392 H 75.20657806809677 108.39259572995255 65.32228026966268 H 0.0 **** 0.06
6393 H 73.97771382344544 108.25502317694517 64.04134137217062 H 0.0 **** 0.06
6394 H 73.53005957455548 107.96545735973845 65.74062516940577 H 0.0 **** 0.06
6395 H 74.55834938705769 106.79514507510004 64.87996606461363 H 0.0 **** 0.06
6396 C 115.69398630099937 113.2151072194655 95.69715701867386 C 0.0 **** -0.24
6397 H 115.43778492399343 113.98440474266471 94.96901341038864 H 0.0 **** 0.06
6398 H 114.82612470045626 112.58063142790212 95.87581773619735 H 0.0 **** 0.06
6399 H 115.99771953761984 113.68659340512033 96.63186171543856 H 0.0 **** 0.06
6400 H 116.51460432513528 112.60934656508721 95.31272099517713 H 0.0 **** 0.06
6401 C 104.2021097896122 52.23547457586554 86.4491369483645 C 0.0 **** -0.24
6402 H 103.4236617729672 51.70396187001927 85.90130857812983 H 0.0 **** 0.06
6403 H 104.78086852952197 52.846680206881565 85.75615498545449 H 0.0 **** 0.06
6404 H 104.8596771079115 51.515739431755236 86.93723585383984 H 0.0 **** 0.06
6405 H 103.74255297661625 52.87579210749317 87.20217411143733 H 0.0 **** 0.06
6406 C 18.8626673699151 92.18584096110513 70.26105505455666 C 0.0 **** -0.24
6407 H 19.369809689798174 92.72336432087934 71.06244090692442 H 0.0 **** 0.06
6408 H 19.594690741555112 91.86916413885831 69.51760325178336 H 0.0 **** 0.06
6409 H 18.127942948947805 92.83983558667714 69.79327848593476 H 0.0 **** 0.06
6410 H 18.36084253815727 91.30988525102771 70.67228054630664 H 0.0 **** 0.06
6411 C 61.6584297578176 7.257191847205192 46.80819700694042 C 0.0 **** -0.24
6412 H 60.773131292841356 7.836625374404235 47.071224409063035 H 0.0 **** 0.06
6413 H 62.50161304313298 7.5860071820922315 47.41583044859409 H 0.0 **** 0.06
6414 H 61.89018079196461 7.407703713663949 45.75319384273968 H 0.0 **** 0.06
6415 H 61.46740869678797 6.199983221726356 46.99037768415796 H 0.0 **** 0.06
6416 C 77.50143159677089 109.36395140082035 72.61309266162448 C 0.0 **** -0.24
6417 H 76.44768465696546 109.23170262554652 72.85911426794428 H 0.0 **** 0.06
6418 H 77.79642795924673 110.39260227663524 72.82151894406434 H 0.0 **** 0.06
6419 H 77.65813183027288 109.14761516497074 71.55643821387548 H 0.0 **** 0.06
6420 H 78.10285662153098 108.68312090855886 73.21631136528862 H 0.0 **** 0.06
6421 C 49.98534523540076 12.906534822748227 0.8523662621555843 C 0.0 **** -0.24
6422 H 50.18536029972924 13.975442023769318 0.9285656764646717 H 0.0 **** 0.06
6423 H 48.9708826610823 12.701251405026028 1.1940318350179098 H 0.0 **** 0.06
6424 H 50.695117995603596 12.358967018285341 1.4733019718514697 H 0.0 **** 0.06
6425 H 50.09153541830423 12.59004940015808 -0.18520184689251096 H 0.0 **** 0.06
6426 C 44.83933808433977 104.85174090977821 39.36163587316213 C 0.0 **** -0.24
6427 H 44.699143329613186 105.60483236092449 38.5865432133329 H 0.0 **** 0.06
6428 H 44.7995509514122 105.32785223563377 40.34249319456819 H 0.0 **** 0.06
6429 H 45.80892223608167 104.37203762653536 39.22952503923409 H 0.0 **** 0.06
6430 H 44.05003518225523 104.10355977925303 39.288397276622845 H 0.0 **** 0.06
6431 C 45.22936422557051 85.10330644058592 17.464923835694037 C 0.0 **** -0.24
6432 H 45.08232368134872 84.6111335851167 18.425522522472278 H 0.0 **** 0.06
6433 H 46.246474823032045 84.92106908378639 17.11586993100954 H 0.0 **** 0.06
6434 H 45.0699174849363 86.17541529828907 17.577854212000915 H 0.0 **** 0.06
6435 H 44.520528051187796 84.70487170137585 16.738943801476495 H 0.0 **** 0.06
6436 C 18.295954048673053 47.91151881587298 83.81248727062965 C 0.0 **** -0.24
6437 H 17.51178366330214 47.212783056100086 83.52413157778943 H 0.0 **** 0.06
6438 H 19.105915352165596 47.36794083769804 84.2994992501095 H 0.0 **** 0.06
6439 H 17.888349330693245 48.65076428455826 84.50258040913161 H 0.0 **** 0.06
6440 H 18.678404731254346 48.41498745226859 82.92529805723825 H 0.0 **** 0.06
6441 C 103.30123604865344 60.14526467484611 19.662171152925822 C 0.0 **** -0.24
6442 H 103.07232967567916 61.13144351008878 19.257735538082926 H 0.0 **** 0.06
6443 H 102.65233152678627 59.94473971087138 20.51591101083298 H 0.0 **** 0.06
6444 H 104.3431709824822 60.11640560573297 19.981698521977734 H 0.0 **** 0.06
6445 H 103.13487091749971 59.390678230071806 18.89365772956367 H 0.0 **** 0.06
6446 C 110.25033940871512 17.172100472676046 10.390717812400538 C 0.0 **** -0.24
6447 H 110.54565431680476 17.523709844695073 9.402423378186128 H 0.0 **** 0.06
6448 H 111.1386656183792 16.88975726193084 10.956446428928444 H 0.0 **** 0.06
6449 H 109.59475540331664 16.306280108639406 10.287263510796734 H 0.0 **** 0.06
6450 H 109.72192841780858 17.966239007462487 10.916538767189323 H 0.0 **** 0.06
6451 C 68.1402044816019 100.63074923414683 95.74740083432312 C 0.0 **** -0.24
6452 H 69.19330549733365 100.85341704535546 95.57699181149727 H 0.0 **** 0.06
6453 H 67.97381530601214 99.55910434078459 95.64049060429656 H 0.0 **** 0.06
6454 H 67.53288593306863 101.16818679530016 95.01959456090285 H 0.0 **** 0.06
6455 H 67.86141706917675 100.94296531497216 96.75480133873148 H 0.0 **** 0.06
6456 C 85.61682182392866 28.31103570830288 20.455296682813074 C 0.0 **** -0.24
6457 H 85.8802654550177 28.123827072663232 19.414555929521022 H 0.0 **** 0.06
6458 H 86.24848896029033 29.10591606067382 20.852297740225485 H 0.0 **** 0.06
6459 H 85.76689629297306 27.400832983621314 21.036388458097495 H 0.0 **** 0.06
6460 H 84.57065369308441 28.612123363135225 20.516226756274555 H 0.0 **** 0.06
6461 C 92.88323553526533 42.15850422114289 65.40614566443764 C 0.0 **** -0.24
6462 H 93.309696775296 42.43677868395622 64.44235258228454 H 0.0 **** 0.06
6463 H 92.68751834948574 43.057979470552766 65.98961546356011 H 0.0 **** 0.06
6464 H 93.58502725875263 41.52235270842837 65.9445270665895 H 0.0 **** 0.06
6465 H 91.95022718394978 41.61738995291151 65.2473509702807 H 0.0 **** 0.06
6466 C 74.30099186948846 44.69873533120649 59.62647615621387 C 0.0 **** -0.24
6467 H 74.72769035873642 43.836238448063504 59.11475995062034 H 0.0 **** 0.06
6468 H 75.0693239438616 45.17541022732362 60.23634246346592 H 0.0 **** 0.06
6469 H 73.48047445229741 44.37267923452096 60.26436443797101 H 0.0 **** 0.06
6470 H 73.9286648056628 45.410242994717265 58.889396533142076 H 0.0 **** 0.06
6471 C 8.4731895888103 112.44183649078781 71.73289627815333 C 0.0 **** -0.24
6472 H 8.861845813812948 113.13784374641958 72.47691930142082 H 0.0 **** 0.06
6473 H 7.673263851609278 112.92259362933675 71.1688622238851 H 0.0 **** 0.06
6474 H 8.083449169715692 111.55617373137565 72.23380524747611 H 0.0 **** 0.06
6475 H 9.274900567914386 112.15266582695432 71.05333259299817 H 0.0 **** 0.06
6476 C 25.393547214296802 85.00542740333552 29.235421923065225 C 0.0 **** -0.24
6477 H 24.880907792884784 85.32444616657062 28.327790481924332 H 0.0 **** 0.06
6478 H 24.856304474989088 84.16823384613718 29.681205682809747 H 0.0 **** 0.06
6479 H 25.42738366608262 85.83465234220463 29.942540795433736 H 0.0 **** 0.06
6480 H 26.409973711967552 84.69585794014591 28.989336633976663 H 0.0 **** 0.06
6481 C 2.3946041946526293 99.35532732852852 4.222835391637879 C 0.0 **** -0.24
6482 H 2.282706953966283 98.36128702250903 4.656557515254384 H 0.0 **** 0.06
6483 H 2.5964063632573016 100.07603742263188 5.015105418196766 H 0.0 **** 0.06
6484 H 1.4766878902838982 99.63073636653385 3.704472171242461 H 0.0 **** 0.06
6485 H 3.2245203822665474 99.35093287553784 3.5151060181723164 H 0.0 **** 0.06
6486 C 66.7823473684378 4.514575196431068 86.90836226280652 C 0.0 **** -0.24
6487 H 67.39769077521379 4.307489085783416 87.78386086108105 H 0.0 **** 0.06
6488 H 65.72921544928039 4.398649562320813 87.16946860969242 H 0.0 **** 0.06
6489 H 67.03819710185024 3.818311986490187 86.11029937922771 H 0.0 **** 0.06
6490 H 66.96190152320816 5.536006556149587 86.57173443671775 H 0.0 **** 0.06
6491 C 66.7631277862697 43.86418817411635 95.70168103616541 C 0.0 **** -0.24
6492 H 66.92034335476069 44.86428484444309 95.29798948657609 H 0.0 **** 0.06
6493 H 67.498761039172 43.66878504677334 96.48329246473861 H 0.0 **** 0.06
6494 H 66.87562080748972 43.128514103336244 94.90513099871922 H 0.0 **** 0.06
6495 H 65.75947453881247 43.79596424199076 96.12154247551842 H 0.0 **** 0.06
6496 C 50.88440343559216 18.957678109644238 55.636600887430745 C 0.0 **** -0.24
6497 H 50.41989941030471 19.087858070958237 56.61321240656764 H 0.0 **** 0.06
6498 H 50.87339735181621 19.905831143317286 55.09901772491102 H 0.0 **** 0.06
6499 H 50.33061004327391 18.211285422823927 55.06735420522702 H 0.0 **** 0.06
6500 H 51.91386230595748 18.62472961860642 55.7658396499119 H 0.0 **** 0.06
6501 C 77.54498704979235 114.8378366585278 34.8720498656964 C 0.0 **** -0.24
6502 H 77.98543979895368 114.59275710800063 33.90591927499668 H 0.0 **** 0.06
6503 H 77.1505576662438 113.93165755339538 35.33230075705427 H 0.0 **** 0.06
6504 H 76.73551384608993 115.55438822712432 34.73022959865875 H 0.0 **** 0.06
6505 H 78.3066230248034 115.27356824472008 35.51846116975895 H 0.0 **** 0.06
6506 C 68.55910130725607 104.13029849368141 22.302739833428603 C 0.0 **** -0.24
6507 H 69.42488360773831 104.35730433527306 21.680059045015952 H 0.0 **** 0.06
6508 H 67.65186608085156 104.46195529996567 21.795985381241735 H 0.0 **** 0.06
6509 H 68.65244065202006 104.64678257256847 23.257231235434205 H 0.0 **** 0.06
6510 H 68.50761784255366 103.05521448908121 22.473964195366932 H 0.0 **** 0.06
6511 C 71.63623211974334 73.01936427304435 45.406343352590056 C 0.0 **** -0.24
6512 H 71.84178804425966 73.9777989748182 45.88444765805207 H 0.0 **** 0.06
6513 H 71.25255213814432 72.31901918505542 46.147942549739696 H 0.0 **** 0.06
6514 H 72.55530305986036 72.6250570812212 44.973764615419896 H 0.0 **** 0.06
6515 H 70.89449695549263 73.15873415407364 44.61988359626457 H 0.0 **** 0.06
6516 C 53.29107209896877 16.20241836299931 14.773466878902127 C 0.0 **** -0.24
6517 H 52.59577567300256 15.397720655745744 15.010870334559684 H 0.0 **** 0.06
6518 H 54.28073004081969 15.782670725305366 14.586084392591829 H 0.0 **** 0.06
6519 H 53.343549410278655 16.89662179136201 15.611172435542528 H 0.0 **** 0.06
6520 H 52.945974941533834 16.73057666589787 13.884465338049722 H 0.0 **** 0.06
6521 C 19.31510124410002 9.744312584487574 19.364929286425877 C 0.0 **** -0.24
6522 H 19.76336385552986 9.15835184574587 18.563160895801587 H 0.0 **** 0.06
6523 H 18.373972940253253 10.171646397086079 19.01856920621384 H 0.0 **** 0.06
6524 H 19.994755908139126 10.547022088072708 19.65137294332726 H 0.0 **** 0.06
6525 H 19.128543283535606 9.101410149018449 20.224480032153423 H 0.0 **** 0.06
6526 C 38.57886028914317 9.208802079135381 111.19282985072033 C 0.0 **** -0.24
6527 H 38.871046571374755 8.183539283023123 110.96320100192287 H 0.0 **** 0.06
6528 H 39.45261306421747 9.768162009630942 111.52838695358815 H 0.0 **** 0.06
6529 H 37.82580406640174 9.203034302011247 111.98083938267699 H 0.0 **** 0.06
6530 H 38.16771596329153 9.677486486377376 110.2986457283348 H 0.0 **** 0.06
6531 C 63.888594372661856 104.92254930174502 57.83515803144747 C 0.0 **** -0.24
6532 H 63.94784133150242 105.33629610007708 58.8419958378424 H 0.0 **** 0.06
6533 H 63.385702008773166 103.95525919017439 57.86939499605254 H 0.0 **** 0.06
6534 H 64.8951044718001 104.79506224423235 57.43606472890756 H 0.0 **** 0.06
6535 H 63.326784042016726 105.60276892523746 57.19621492523668 H 0.0 **** 0.06
6536 C 103.13911943383292 39.75925957875168 86.14835831425725 C 0.0 **** -0.24
6537 H 103.05703101271132 39.911968407639705 87.22569002773884 H 0.0 **** 0.06
6538 H 104.02517354687231 40.272874487591764 85.77558387176563 H 0.0 **** 0.06
6539 H 102.25191014881761 40.15888970386749 85.65688051217711 H 0.0 **** 0.06
6540 H 103.22157602698633 38.693145126545204 85.93893338428441 H 0.0 **** 0.06
6541 C 18.074427143274505 94.01498176711985 93.24353953699097 C 0.0 **** -0.24
6542 H 17.95669443352992 94.15355805732398 92.16850715411326 H 0.0 **** 0.06
6543 H 19.126119344694544 93.84569340323412 93.47420795308139 H 0.0 **** 0.06
6544 H 17.488346456044553 93.15318104667199 93.56460491907637 H 0.0 **** 0.06
6545 H 17.726512561885954 94.90678678214084 93.76471725889814 H 0.0 **** 0.06
6546 C 25.97623685408746 56.05239423599483 96.14013380449595 C 0.0 **** -0.24
6547 H 26.98786171216173 55.655658158841 96.05245474008177 H 0.0 **** 0.06
6548 H 25.578964863488494 55.817921410349946 97.1277305985131 H 0.0 **** 0.06
6549 H 25.342388576076644 55.60155313300096 95.37603127840674 H 0.0 **** 0.06
6550 H 25.99766023332495 57.133957628827055 96.00329564704262 H 0.0 **** 0.06
6551 C 30.329099288805196 5.510276195375184 38.204061999068756 C 0.0 **** -0.24
6552 H 30.66889963003524 6.034561102295129 37.311638920197424 H 0.0 **** 0.06
6553 H 29.26564093221839 5.286699181239669 38.112461351887134 H 0.0 **** 0.06
6554 H 30.493630931270275 6.139247508920846 39.07886905353308 H 0.0 **** 0.06
6555 H 30.88713026203081 4.5803285384000105 38.31520955751898 H 0.0 **** 0.06
6556 C 5.321856895800295 105.32930342468461 20.92612216527118 C 0.0 **** -0.24
6557 H 4.384433136789426 105.5710830818212 20.423606141703488 H 0.0 **** 0.06
6558 H 5.556904455025631 104.27610305467337 20.768894132031846 H 0.0 **** 0.06
6559 H 5.222699649423106 105.52514318770938 21.99380638584873 H 0.0 **** 0.06
6560 H 6.122370141813576 105.94578461985782 20.51570224054157 H 0.0 **** 0.06
6561 C 114.88036579366081 109.55297791872898 109.4851739818908 C 0.0 **** -0.24
6562 H 114.55203160495292 108.56425645300469 109.80728661539395 H 0.0 **** 0.06
6563 H 114.50676645733574 109.74995632221425 108.48093947848166 H 0.0 **** 0.06
6564 H 115.96971233235085 109.58852024149895 109.48095275409739 H 0.0 **** 0.06
6565 H 114.49455663177189 110.30548307947726 110.17239534166598 H 0.0 **** 0.06
6566 C 53.484476412583035 54.870010350585055 4.489071643374473 C 0.0 **** -0.24
6567 H 53.25846289469524 54.17495729713587 3.679670520289534 H 0.0 **** 0.06
6568 H 53.44861072358583 55.89150024810872 4.110922221887421 H 0.0 **** 0.06
6569 H 54.48093284150576 54.66208704596318 4.878348442343224 H 0.0 **** 0.06
6570 H 52.74998745166812 54.75079345582004 5.285764985412527 H 0.0 **** 0.06
6571 C 1.895575778483476 42.537962329186485 90.22555552645434 C 0.0 **** -0.24
6572 H 2.1238674940345845 42.970786013316484 89.25106049111596 H 0.0 **** 0.06
6573 H 0.8725707038603048 42.791371941074715 90.50460781826149 H 0.0 **** 0.06
6574 H 2.585546741948889 42.93429115763908 90.96959948710366 H 0.0 **** 0.06
6575 H 1.9998995394454084 41.45458032217695 90.17293516458807 H 0.0 **** 0.06
6576 C 109.94056168152397 55.29277942302193 73.07386060244286 C 0.0 **** -0.24
6577 H 109.18318937367111 54.67817709655236 72.5880580814908 H 0.0 **** 0.06
6578 H 110.77581612827733 55.4455719061603 72.39063998420994 H 0.0 **** 0.06
6579 H 110.29366226653555 54.788938378835 73.97350227113967 H 0.0 **** 0.06
6580 H 109.50822242997616 56.25647024248621 73.34267787943853 H 0.0 **** 0.06
6581 C 110.84144546982569 10.202290558195344 95.66666278676144 C 0.0 **** -0.24
6582 H 110.1483100491626 11.001018138177997 95.93101202044707 H 0.0 **** 0.06
6583 H 111.66059775429012 10.612897725618964 95.07579368881449 H 0.0 **** 0.06
6584 H 110.31693174694658 9.443636614502708 95.0863426379093 H 0.0 **** 0.06
6585 H 111.23998324945953 9.75138273629895 96.57649400543494 H 0.0 **** 0.06
6586 C 22.892413169749553 80.70556208204562 24.23370623770208 C 0.0 **** -0.24
6587 H 22.15415218743087 81.22043648639743 23.6193333829834 H 0.0 **** 0.06
6588 H 22.89779977314331 79.64412197923068 23.981668581624035 H 0.0 **** 0.06
6589 H 22.63881080517439 80.82791238877826 25.2866935150615 H 0.0 **** 0.06
6590 H 23.879812381440196 81.12888336430714 24.046538085652173 H 0.0 **** 0.06
6591 C 17.111659889257197 52.79811965081601 38.11060371146431 C 0.0 **** -0.24
6592 H 16.6399505487195 53.76044461092533 37.90955648687094 H 0.0 **** 0.06
6593 H 16.43056899525408 52.174156078492146 38.69005057734927 H 0.0 **** 0.06
6594 H 18.029735984239775 52.95494711760719 38.676370768424874 H 0.0 **** 0.06
6595 H 17.345001930102498 52.303212339641874 37.16817218660697 H 0.0 **** 0.06
6596 C 57.1913774339217 22.046276537647813 84.00488240868668 C 0.0 **** -0.24
6597 H 56.42816803198613 21.294678558057896 84.20592925410824 H 0.0 **** 0.06
6598 H 56.809756150696984 22.766964199469523 83.28160551937546 H 0.0 **** 0.06
6599 H 58.08016508582011 21.560222195387446 83.60077631833963 H 0.0 **** 0.06
6600 H 57.44803982038576 22.56031859627371 84.93149299710916 H 0.0 **** 0.06
6601 C 64.33041738743862 53.02599208198634 32.60953472548837 C 0.0 **** -0.24
6602 H 64.79013631122302 53.42763143843093 33.51235380071057 H 0.0 **** 0.06
6603 H 63.829200259606864 53.829496448217796 32.06946425473694 H 0.0 **** 0.06
6604 H 63.60261839605957 52.26122315091979 32.882208748096815 H 0.0 **** 0.06
6605 H 65.09932141094521 52.58632726072484 31.9752703186154 H 0.0 **** 0.06
6606 C 35.15106761873292 28.934357453291668 51.0391079133239 C 0.0 **** -0.24
6607 H 34.32342694030461 28.945542938484863 51.74805412802854 H 0.0 **** 0.06
6608 H 35.495223322452794 27.90992756836195 50.897311502464675 H 0.0 **** 0.06
6609 H 35.96866586101767 29.5418553510834 51.427552763355465 H 0.0 **** 0.06
6610 H 34.81732460963205 29.341903842906035 50.08478746637161 H 0.0 **** 0.06
6611 C 14.71489163529958 47.96943243755982 34.27124978179984 C 0.0 **** -0.24
6612 H 14.920722495547437 47.885847992640095 33.20387670086791 H 0.0 **** 0.06
6613 H 14.967713358361522 47.030387944228266 34.76436602236299 H 0.0 **** 0.06
6614 H 13.657689362944893 48.185612733967105 34.42144077417572 H 0.0 **** 0.06
6615 H 15.314325452495297 48.7749212443253 34.694770515001665 H 0.0 **** 0.06
6616 C 45.29327020281295 11.52983168047325 27.10320081527459 C 0.0 **** -0.24
6617 H 44.86727030824363 12.256709663796158 27.794727711830035 H 0.0 **** 0.06
6618 H 44.849564588386954 11.66362639815813 26.116621742321712 H 0.0 **** 0.06
6619 H 45.08545825774354 10.521877240770237 27.462355393417937 H 0.0 **** 0.06
6620 H 46.37151032193742 11.678546690408922 27.03974930746179 H 0.0 **** 0.06
6621 C 72.93576295599047 53.9436647593478 82.54460981150393 C 0.0 **** -0.24
6622 H 73.51607598331185 53.05491918992257 82.79569776386808 H 0.0 **** 0.06
6623 H 72.93602418930195 54.628513523710325 83.39227191095884 H 0.0 **** 0.06
6624 H 71.91120279321751 53.65295095428482 82.31169578444809 H 0.0 **** 0.06
6625 H 73.37997743410367 54.43456420053835 81.67919306094336 H 0.0 **** 0.06
6626 C 62.46054496041895 112.90627541169434 21.53882204869916 C 0.0 **** -0.24
6627 H 62.04700198289918 113.91433950013968 21.576077832513874 H 0.0 **** 0.06
6628 H 62.129815475755144 112.41159570826142 20.62489697703316 H 0.0 **** 0.06
6629 H 62.116218047732524 112.34007583913598 22.403962475438078 H 0.0 **** 0.06
6630 H 63.54890057994141 112.9598378522804 21.549732642656807 H 0.0 **** 0.06
6631 C 33.4192555368075 45.856591736685004 70.02640604263993 C 0.0 **** -0.24
6632 H 32.48660587263896 45.83923912762393 70.58883769285342 H 0.0 **** 0.06
6633 H 33.35566637302168 45.15394532580794 69.19463534610176 H 0.0 **** 0.06
6634 H 34.243208049149985 45.57281956445138 70.68097961731905 H 0.0 **** 0.06
6635 H 33.59143103457575 46.86109733975363 69.64050187401634 H 0.0 **** 0.06
6636 C 34.79466539552073 57.720929856044194 111.43969184450134 C 0.0 **** -0.24
6637 H 34.58247134419942 56.738206208616305 111.02030443554285 H 0.0 **** 0.06
6638 H 34.25680263769435 58.481565883679934 110.87267727149441 H 0.0 **** 0.06
6639 H 35.86516758910616 57.916110301636735 111.3862171364658 H 0.0 **** 0.06
6640 H 34.47278836307032 57.748358493470164 112.48086417807599 H 0.0 **** 0.06
6641 C 107.63363030442329 36.62642086967716 74.72407975209333 C 0.0 **** -0.24
6642 H 107.13226120711843 36.50474378399885 75.68485899224734 H 0.0 **** 0.06
6643 H 107.52794529409789 35.71165264177016 74.14071730601088 H 0.0 **** 0.06
6644 H 108.69094362339641 36.83361086530874 74.88973851862059 H 0.0 **** 0.06
6645 H 107.18161621458694 37.45760375291326 74.18248925580443 H 0.0 **** 0.06
6646 C 107.99386147526346 91.3752518685798 19.839728702362493 C 0.0 **** -0.24
6647 H 107.7612138909274 91.31962508102944 18.77662208147467 H 0.0 **** 0.06
6648 H 108.561367660196 92.28372604197429 20.040630049175434 H 0.0 **** 0.06
6649 H 108.586636536116 90.50580013511782 20.12756632364841 H 0.0 **** 0.06
6650 H 107.06782295105802 91.38936219895604 20.413610621044228 H 0.0 **** 0.06
6651 C 67.44647421519201 18.366931911442208 113.08755232358976 C 0.0 **** -0.24
6652 H 66.84749942138376 18.759515883593565 112.26597276329193 H 0.0 **** 0.06
6653 H 67.72361834406846 19.18226528023763 113.75696825354464 H 0.0 **** 0.06
6654 H 68.34815512268307 17.901369821638596 112.68914490618442 H 0.0 **** 0.06
6655 H 66.86746884459009 17.625103852072755 113.63821457582821 H 0.0 **** 0.06
6656 C 32.145160864284996 63.046265204727945 2.1422572846752104 C 0.0 **** -0.24
6657 H 31.124688326453445 62.99532895241828 1.7624793652440758 H 0.0 **** 0.06
6658 H 32.559360658708 64.03383851847047 1.9378961436818827 H 0.0 **** 0.06
6659 H 32.75346351412424 62.287757473659326 1.6505339696342958 H 0.0 **** 0.06
6660 H 32.140920148978644 62.867898165403346 3.2178827871414484 H 0.0 **** 0.06
6661 C 39.85701325159695 57.83967223973442 67.66506095974168 C 0.0 **** -0.24
6662 H 39.20666548898413 57.300033945312755 66.97693943035853 H 0.0 **** 0.06
6663 H 40.68356032150206 58.28307302480402 67.10960649483621 H 0.0 **** 0.06
6664 H 40.249936311156546 57.148532540071805 68.41145791319073 H 0.0 **** 0.06
6665 H 39.288622310995464 58.62596799093816 68.16169632720269 H 0.0 **** 0.06
6666 C 61.92007899950386 0.6647593319197824 60.7796085190597 C 0.0 **** -0.24
6667 H 62.188444994191684 0.46503587932454593 59.742926738310736 H 0.0 **** 0.06
6668 H 61.89925550226474 1.7413562264817415 60.94824559688721 H 0.0 **** 0.06
6669 H 62.65663382247067 0.2064859634404428 61.43998682596344 H 0.0 **** 0.06
6670 H 60.93539838069199 0.2449299280051207 60.986203148390935 H 0.0 **** 0.06
6671 C 27.508970912762322 24.631604955616837 89.62193361367568 C 0.0 **** -0.24
6672 H 26.724319574302854 24.897133118888362 88.9133949463612 H 0.0 **** 0.06
6673 H 28.16446214473467 25.48837552248915 89.77578212584282 H 0.0 **** 0.06
6674 H 28.088270528687417 23.79770892663572 89.22532128034064 H 0.0 **** 0.06
6675 H 27.057502643802252 24.34281334537576 90.5712153359269 H 0.0 **** 0.06
6676 C 15.151288170502966 45.60126998102362 21.518960072757565 C 0.0 **** -0.24
6677 H 15.983022773043643 44.986482002624996 21.175764465859572 H 0.0 **** 0.06
6678 H 14.472338957360279 45.791218438121575 20.687761837897426 H 0.0 **** 0.06
6679 H 15.533669058854201 46.547761799101124 21.900615726168397 H 0.0 **** 0.06
6680 H 14.617416498568247 45.07935891233609 22.312819513544525 H 0.0 **** 0.06
6681 C 78.66847467188606 47.272073229343334 114.19353014864016 C 0.0 **** -0.24
6682 H 78.99419862714342 46.271553252475854 113.90975802065276 H 0.0 **** 0.06
6683 H 77.95305923053695 47.644043255618584 113.45932712709343 H 0.0 **** 0.06
6684 H 79.53178781097282 47.937279918666974 114.23021135270426 H 0.0 **** 0.06
6685 H 78.19698368370996 47.23576266753554 115.17540780569732 H 0.0 **** 0.06
6686 C 30.598883389988018 41.4318569682473 81.68972524946605 C 0.0 **** -0.24
6687 H 30.768247215192787 42.25987920480654 81.0016365803935 H 0.0 **** 0.06
6688 H 29.556904095438995 41.11681086285742 81.62833222280284 H 0.0 **** 0.06
6689 H 30.822182191203723 41.7535647340095 82.70664052994499 H 0.0 **** 0.06
6690 H 31.247747552421842 40.59772390829309 81.42159032652319 H 0.0 **** 0.06
6691 C 7.388693605758576 78.77618691203412 21.38443846115478 C 0.0 **** -0.24
6692 H 6.31610655836441 78.95258023144123 21.309196606979686 H 0.0 **** 0.06
6693 H 7.575859901785776 77.96332321679756 22.08628415015625 H 0.0 **** 0.06
6694 H 7.881875115364522 79.68263863284665 21.738269432708552 H 0.0 **** 0.06
6695 H 7.782895259919599 78.50847076058727 20.403868162096018 H 0.0 **** 0.06
6696 C 55.762703489662584 116.63880444947819 56.50160700708622 C 0.0 **** -0.24
6697 H 55.79826639694963 117.05704957085962 57.508157221930986 H 0.0 **** 0.06
6698 H 54.73870670770589 116.6776410811774 56.129554194989936 H 0.0 **** 0.06
6699 H 56.10256092309848 115.60373557788822 56.52610771361492 H 0.0 **** 0.06
6700 H 56.410121874445394 117.21952274188337 55.844092216034454 H 0.0 **** 0.06
6701 C 35.883258533650405 68.91346446641745 33.7171520938595 C 0.0 **** -0.24
6702 H 35.403875673197604 67.95158015410317 33.897411835516436 H 0.0 **** 0.06
6703 H 35.79148798283768 69.1731314802991 32.66249851304224 H 0.0 **** 0.06
6704 H 36.93796193276205 68.84937582334527 33.98505386913106 H 0.0 **** 0.06
6705 H 35.40038153890197 69.67918356854983 34.32409444420298 H 0.0 **** 0.06
6706 C 8.12115561233719 10.317727086158442 40.44925730266768 C 0.0 **** -0.24
6707 H 8.197105140352619 10.014099865864068 39.404591224818496 H 0.0 **** 0.06
6708 H 8.81332916810382 11.138096896878324 40.639735974688186 H 0.0 **** 0.06
6709 H 8.372123383140575 9.472636306224814 41.09112783354543 H 0.0 **** 0.06
6710 H 7.102941842953385 10.644151191193487 40.659018936135304 H 0.0 **** 0.06
6711 C 75.55293596061748 57.945634241521326 42.84008500495598 C 0.0 **** -0.24
6712 H 74.60836911663705 57.90164891358318 42.296042864360516 H 0.0 **** 0.06
6713 H 76.18601668962378 57.11217792005845 42.53580665934388 H 0.0 **** 0.06
6714 H 75.35758923626466 57.88227584971457 43.91052011795696 H 0.0 **** 0.06
6715 H 76.05608485157617 58.8857942376198 42.61783009496105 H 0.0 **** 0.06
6716 C 5.551441844108211 34.814058008650136 14.00872140973678 C 0.0 **** -0.24
6717 H 6.396883687573336 35.4610647952361 13.774310901490935 H 0.0 **** 0.06
6718 H 5.7248681204650325 34.324362836128785 14.967934648931191 H 0.0 **** 0.06
6719 H 5.444576458780034 34.060528012188456 13.22936833634219 H 0.0 **** 0.06
6720 H 4.641722659309124 35.41108126723168 14.065043219813901 H 0.0 **** 0.06
6721 C 97.01434770716486 39.056224504273075 40.094795950929665 C 0.0 **** -0.24
6722 H 97.88771576567373 38.61657114783492 40.57678261238203 H 0.0 **** 0.06
6723 H 96.11661466074659 38.779784521064244 40.648275229698356 H 0.0 **** 0.06
6724 H 96.93952132448234 38.685367977573094 39.0727546645395 H 0.0 **** 0.06
6725 H 97.11461428936963 40.1412607250918 40.081798112081856 H 0.0 **** 0.06
6726 C 14.455058820416085 98.5346111393643 57.99389030278604 C 0.0 **** -0.24
6727 H 14.99873510798189 99.32158060310351 57.47108237406715 H 0.0 **** 0.06
6728 H 13.661812148608242 98.15184732373837 57.350686895508716 H 0.0 **** 0.06
6729 H 14.01946536575268 98.93924490313569 58.90749077711294 H 0.0 **** 0.06
6730 H 15.140740737952328 97.72564020327752 58.24545596982313 H 0.0 **** 0.06
6731 C 1.5115678452589236 87.36994986508827 10.61028327967107 C 0.0 **** -0.24
6732 H 1.932428329208932 87.82919141544335 11.504887455110044 H 0.0 **** 0.06
6733 H 0.6980285337227201 87.9886119729801 10.232488488046265 H 0.0 **** 0.06
6734 H 1.1320618796594886 86.37876492790872 10.856497716929674 H 0.0 **** 0.06
6735 H 2.286809131005896 87.28230682951971 9.848156194051931 H 0.0 **** 0.06
6736 C 28.79656575390777 18.030448249255755 30.277094385537396 C 0.0 **** -0.24
6737 H 27.917776380517694 18.632869500859215 30.504955703199755 H 0.0 **** 0.06
6738 H 28.83166504780769 17.171617169332364 30.947791942746733 H 0.0 **** 0.06
6739 H 29.695262202123956 18.63362257928506 30.41199612014239 H 0.0 **** 0.06
6740 H 28.74319256193087 17.684831839315734 29.244641203103583 H 0.0 **** 0.06
6741 C 55.456947465920905 3.9238623360758282 13.36849246645383 C 0.0 **** -0.24
6742 H 55.211499035152904 3.9739143065321514 12.307420902619754 H 0.0 **** 0.06
6743 H 56.17364106531698 3.1194639037717167 13.538379184706855 H 0.0 **** 0.06
6744 H 54.5504074659657 3.731019442683575 13.94264474959769 H 0.0 **** 0.06
6745 H 55.89297592945034 4.871555565433923 13.68506901056466 H 0.0 **** 0.06
6746 C 44.1106081669285 37.24239922544621 9.456853044591753 C 0.0 **** -0.24
6747 H 43.28868482698485 37.92217448283343 9.680963675628135 H 0.0 **** 0.06
6748 H 45.0567211443084 37.77790991521885 9.536083751319609 H 0.0 **** 0.06
6749 H 43.99611170583947 36.85467259768026 8.44498964386409 H 0.0 **** 0.06
6750 H 44.100675147820624 36.414812833368444 10.166768613428872 H 0.0 **** 0.06
6751 C 15.623172168865398 57.78308232786986 98.81213234529258 C 0.0 **** -0.24
6752 H 15.476608866921296 57.2438146609428 99.74845739516331 H 0.0 **** 0.06
6753 H 14.657196032101137 58.11568195932227 98.43102395606195 H 0.0 **** 0.06
6754 H 16.094563006235166 57.12412913969587 98.08316161644129 H 0.0 **** 0.06
6755 H 16.26175106605939 58.64825854427846 98.98736935369593 H 0.0 **** 0.06
6756 C 99.41798444206927 88.56303239006323 58.008026292205216 C 0.0 **** -0.24
6757 H 99.48765310855913 89.63878273134588 57.846727049025986 H 0.0 **** 0.06
6758 H 99.38967665414964 88.3577611085982 59.078050741967246 H 0.0 **** 0.06
6759 H 100.2858248308844 88.0730588597786 57.566486974794316 H 0.0 **** 0.06
6760 H 98.50936498519457 88.18379094244025 57.54058799551768 H 0.0 **** 0.06
6761 C 108.60207525740168 37.41354350572976 59.1068860684434 C 0.0 **** -0.24
6762 H 107.91224833105957 37.83613670360887 58.3769766805753 H 0.0 **** 0.06
6763 H 108.29536805843816 36.39533846962439 59.349857805563175 H 0.0 **** 0.06
6764 H 108.59115261342458 38.021825593411506 60.01122923054044 H 0.0 **** 0.06
6765 H 109.60945962757268 37.39994736805795 58.68985143096657 H 0.0 **** 0.06
6766 C 49.9961952132856 59.65164439541002 96.68348633504789 C 0.0 **** -0.24
6767 H 50.236314361632225 60.7124085047987 96.59817875477205 H 0.0 **** 0.06
6768 H 50.40714382841378 59.11694136908085 95.82704200812904 H 0.0 **** 0.06
6769 H 48.91380614757193 59.52452013040488 96.70698755184628 H 0.0 **** 0.06
6770 H 50.428572840212496 59.254677740506395 97.60168293696776 H 0.0 **** 0.06
6771 C 12.386443913875326 114.59055594179176 8.295319731389867 C 0.0 **** -0.24
6772 H 12.625913618452358 115.42443309289979 8.955923379790924 H 0.0 **** 0.06
6773 H 11.994799871049878 114.97407552201611 7.3532535806528845 H 0.0 **** 0.06
6774 H 11.63787844450971 113.95545619438883 8.76968883926585 H 0.0 **** 0.06
6775 H 13.288443221418476 114.00866384028728 8.10447469768944 H 0.0 **** 0.06
6776 C 6.943386524264241 38.971227035120535 10.411379771652218 C 0.0 **** -0.24
6777 H 8.029740205958731 39.003226388624284 10.49939530008448 H 0.0 **** 0.06
6778 H 6.538046861731516 39.97318694864629 10.555595264289956 H 0.0 **** 0.06
6779 H 6.537987130566108 38.30208000346386 11.170785188773454 H 0.0 **** 0.06
6780 H 6.670184911867793 38.60707243839198 9.4219217544257 H 0.0 **** 0.06
6781 C 36.81735387556686 82.9613588884472 55.37248532003099 C 0.0 **** -0.24
6782 H 36.18693544040582 82.2324739826347 54.86276149270776 H 0.0 **** 0.06
6783 H 36.998637400049034 82.63148253684551 56.395922616563496 H 0.0 **** 0.06
6784 H 36.31490043849041 83.92914627982339 55.385567374326854 H 0.0 **** 0.06
6785 H 37.76699518797822 83.0514506421298 54.84503312201633 H 0.0 **** 0.06
6786 C 28.577531107665507 19.712309252046964 34.22201526946975 C 0.0 **** -0.24
6787 H 29.628526344834306 19.981049429037967 34.11503067702094 H 0.0 **** 0.06
6788 H 28.483623482498068 18.886129906876363 34.92734998322098 H 0.0 **** 0.06
6789 H 28.17897569705388 19.411511918713643 33.25296752541476 H 0.0 **** 0.06
6790 H 28.019133408192303 20.571939865166087 34.59290905073769 H 0.0 **** 0.06
6791 C 53.49279057670903 16.15466328589048 70.25806834065597 C 0.0 **** -0.24
6792 H 54.57104758973583 16.18740484572038 70.09799385523806 H 0.0 **** 0.06
6793 H 53.07996587600019 17.15867614580702 70.15159765202492 H 0.0 **** 0.06
6794 H 53.28609134274979 15.780565581038331 71.2608860267942 H 0.0 **** 0.06
6795 H 53.03720443975403 15.492984883442887 69.52142125800188 H 0.0 **** 0.06
6796 C 82.22182601282077 3.182646757678441 41.76348934249492 C 0.0 **** -0.24
6797 H 82.97492974193972 3.9453190067392825 41.95993714651553 H 0.0 **** 0.06
6798 H 82.71031470896605 2.218287324221393 41.62310895010296 H 0.0 **** 0.06
6799 H 81.66758405188216 3.4444332831683084 40.8625500610963 H 0.0 **** 0.06
6800 H 81.53653930530658 3.123814452076033 42.60799259703609 H 0.0 **** 0.06
6801 C 90.94325017013892 105.18829357906512 22.757672204486227 C 0.0 **** -0.24
6802 H 91.65339791863363 105.42964194803955 21.966107194360717 H 0.0 **** 0.06
6803 H 91.42994646105063 105.29648203221029 23.726872872131707 H 0.0 **** 0.06
6804 H 90.6002611070852 104.16043500466989 22.635933679644666 H 0.0 **** 0.06
6805 H 90.09099266499715 105.86461670717597 22.700208512001325 H 0.0 **** 0.06
6806 C 25.04936639720256 58.06390290298045 108.61095238080442 C 0.0 **** -0.24
6807 H 25.782965983329518 57.921844572483515 107.8168862066353 H 0.0 **** 0.06
6808 H 24.7487490454765 57.0921565410484 109.00442062741813 H 0.0 **** 0.06
6809 H 24.17714397181524 58.58035426062161 108.21076120814465 H 0.0 **** 0.06
6810 H 25.49013385100764 58.659136125282 109.410267332527 H 0.0 **** 0.06
6811 C 30.720257345550493 18.786774883583234 72.2806450225217 C 0.0 **** -0.24
6812 H 30.86453630277478 19.09929203988918 71.24687690535077 H 0.0 **** 0.06
6813 H 31.62770068367908 18.989315414756334 72.85088442519975 H 0.0 **** 0.06
6814 H 30.50246525213396 17.71916997790072 72.31078363253988 H 0.0 **** 0.06
6815 H 29.887916159729087 19.34043195482775 72.71452857022035 H 0.0 **** 0.06
6816 C 80.73891211446144 11.220715614803812 34.77385798892912 C 0.0 **** -0.24
6817 H 80.5835187018017 12.204831058293895 35.21519301596449 H 0.0 **** 0.06
6818 H 79.91420572587626 10.991158515777432 34.098755844754635 H 0.0 **** 0.06
6819 H 80.78115815828775 10.47120829392108 35.5639845598721 H 0.0 **** 0.06
6820 H 81.67676587187984 11.215664591222897 34.21749853512539 H 0.0 **** 0.06
6821 C 14.086917083235875 13.239087289338443 63.861771197765385 C 0.0 **** -0.24
6822 H 14.30035746839917 13.580454074988012 62.848290586001475 H 0.0 **** 0.06
6823 H 14.810342395832123 13.674258604317117 64.55138102896996 H 0.0 **** 0.06
6824 H 14.156948227429893 12.151503724600389 63.89997666407478 H 0.0 **** 0.06
6825 H 13.080855958856858 13.547692229012029 64.14535179257098 H 0.0 **** 0.06
6826 C 53.4216367536074 78.7399770754931 82.54671912374445 C 0.0 **** -0.24
6827 H 54.27396930485446 78.9346152035009 83.19795349576165 H 0.0 **** 0.06
6828 H 53.262346320485165 79.5977968554208 81.89214533814001 H 0.0 **** 0.06
6829 H 52.530578342644645 78.57536617683263 83.15370281984661 H 0.0 **** 0.06
6830 H 53.61985103249873 77.8537765973775 81.9445748502007 H 0.0 **** 0.06
6831 C 68.36758403201583 3.3521681574968056 16.19762688391944 C 0.0 **** -0.24
6832 H 69.05984579867464 2.7469547499806026 16.782712627663045 H 0.0 **** 0.06
6833 H 68.33597426068965 4.363414895076289 16.60494728136473 H 0.0 **** 0.06
6834 H 67.37157729826666 2.9105301338867378 16.242442780243493 H 0.0 **** 0.06
6835 H 68.70238248943213 3.387418973681207 15.1611567641624 H 0.0 **** 0.06
6836 C 21.451781289633104 90.44838270994157 9.145892061997333 C 0.0 **** -0.24
6837 H 20.824285499905056 90.64886360157149 10.014260880964223 H 0.0 **** 0.06
6838 H 20.8657920119493 90.58103900870546 8.236211974752692 H 0.0 **** 0.06
6839 H 21.821645883075472 89.4239844113298 9.194248017269125 H 0.0 **** 0.06
6840 H 22.295193005025805 91.13900191122613 9.139585232303666 H 0.0 **** 0.06
6841 C 84.55785061721096 13.026477727552844 77.30306100610647 C 0.0 **** -0.24
6842 H 85.08487199392866 12.79390715032369 76.37775329704556 H 0.0 **** 0.06
6843 H 84.39756345170895 14.103027297062098 77.36846025809785 H 0.0 **** 0.06
6844 H 85.15197596817649 12.69475993548157 78.15379378528661 H 0.0 **** 0.06
6845 H 83.59563028340972 12.515366416393107 77.3105554927294 H 0.0 **** 0.06
6846 C 58.777258688477986 48.25258810861166 115.87625051869708 C 0.0 **** -0.24
6847 H 59.320618066575804 47.49590275487685 115.31018706383242 H 0.0 **** 0.06
6848 H 58.50061415737753 49.07258301207392 115.21273021779717 H 0.0 **** 0.06
6849 H 59.41179246298498 48.63066419698649 116.67797013229807 H 0.0 **** 0.06
6850 H 57.877231384450226 47.810336404362346 116.30245375649872 H 0.0 **** 0.06
6851 C 54.91396968063509 56.798799455362065 57.96667728564042 C 0.0 **** -0.24
6852 H 54.90259739689088 57.56589716172939 58.74129575580478 H 0.0 **** 0.06
6853 H 53.99204858967545 56.22017738143273 58.0155844084287 H 0.0 **** 0.06
6854 H 55.76712555468242 56.138578623539935 58.12231939629586 H 0.0 **** 0.06
6855 H 54.99609742638927 57.272416527549574 56.98824134774532 H 0.0 **** 0.06
6856 C 58.03494790123469 77.19343572291268 78.42307247007477 C 0.0 **** -0.24
6857 H 59.001079365751195 76.69324750405883 78.49653508693524 H 0.0 **** 0.06
6858 H 57.9859094984258 77.99861676892726 79.15597060040767 H 0.0 **** 0.06
6859 H 57.23812112962838 76.47483529479325 78.61766062185839 H 0.0 **** 0.06
6860 H 57.915384443592416 77.60469077212713 77.42039960785164 H 0.0 **** 0.06
6861 C 52.61151913183832 98.88453986521904 109.81419990414885 C 0.0 **** -0.24
6862 H 51.68330481653874 99.03502810497116 109.26200292783263 H 0.0 **** 0.06
6863 H 52.794765331166836 99.7468638894837 110.45548696308047 H 0.0 **** 0.06
6864 H 53.436882011494994 98.7697582551096 109.11269853473415 H 0.0 **** 0.06
6865 H 52.52748053088917 97.98723163731543 110.42705992624192 H 0.0 **** 0.06
6866 C 10.886474756671447 5.605462864001552 50.54947525471323 C 0.0 **** -0.24
6867 H 9.998605722566737 5.364403492355933 49.96431462261387 H 0.0 **** 0.06
6868 H 10.629004929539349 6.3420192482444975 51.31208398683975 H 0.0 **** 0.06
6869 H 11.655010074698708 6.01373970840919 49.89370211840037 H 0.0 **** 0.06
6870 H 11.261044424708672 4.701265766613545 51.02975763403009 H 0.0 **** 0.06
6871 C 83.85602217188915 62.14718085505918 88.25531917456871 C 0.0 **** -0.24
6872 H 83.54347235792252 63.12100660761808 87.87913577521678 H 0.0 **** 0.06
6873 H 83.88641965495412 61.43293497062056 87.4316336413288 H 0.0 **** 0.06
6874 H 83.14751283537751 61.8040515016527 89.00889909956652 H 0.0 **** 0.06
6875 H 84.84800387667369 62.23153163359313 88.69970666204244 H 0.0 **** 0.06
6876 C 28.441957692832318 70.03027881333307 111.31626797837642 C 0.0 **** -0.24
6877 H 29.401663982290984 70.18767287498844 110.82489656752026 H 0.0 **** 0.06
6878 H 28.15280511959969 68.9839848292948 111.22071894951313 H 0.0 **** 0.06
6879 H 27.686661196780108 70.66105458265483 110.84887518643457 H 0.0 **** 0.06
6880 H 28.527550121314675 70.28860407756662 112.37207714640243 H 0.0 **** 0.06
6881 C 84.82852673397403 42.18617098107538 19.32465246779958 C 0.0 **** -0.24
6882 H 83.76003096431955 42.38715289513095 19.39184575648028 H 0.0 **** 0.06
6883 H 85.00395585669551 41.114865235937685 19.421185210796125 H 0.0 **** 0.06
6884 H 85.34772814526892 42.71308979873268 20.126360972575753 H 0.0 **** 0.06
6885 H 85.2036637853987 42.531107885070625 18.361226975966275 H 0.0 **** 0.06
6886 C 27.96725862388351 66.01614116871258 35.384882462494204 C 0.0 **** -0.24
6887 H 27.858295806659157 65.16253058864754 34.71620165558022 H 0.0 **** 0.06
6888 H 29.025429968413476 66.24124288274425 35.51821885473976 H 0.0 **** 0.06
6889 H 27.520740905172175 65.77903169818029 36.35150498387847 H 0.0 **** 0.06
6890 H 27.462443198680887 66.88092915119293 34.955276773417694 H 0.0 **** 0.06
6891 C 73.63440283660299 32.95762627764715 55.656976663691694 C 0.0 **** -0.24
6892 H 73.71742437745542 33.7673935472013 54.93204745318246 H 0.0 **** 0.06
6893 H 73.99813879252142 32.03244840898605 55.2104959787888 H 0.0 **** 0.06
6894 H 72.59023690112897 32.83537014473435 55.946059597830015 H 0.0 **** 0.06
6895 H 74.22968050766778 33.19617416352658 56.538476735948365 H 0.0 **** 0.06
6896 C 8.402162001088413 45.952697840984115 33.636952160942485 C 0.0 **** -0.24
6897 H 9.096064622936865 45.12457389972286 33.491763076971665 H 0.0 **** 0.06
6898 H 7.385044555560171 45.56800768131296 33.701500327536166 H 0.0 **** 0.06
6899 H 8.478093177007565 46.640333516393355 32.794644854209025 H 0.0 **** 0.06
6900 H 8.652950737341598 46.47822907785124 34.55863915885931 H 0.0 **** 0.06
6901 C 29.431594284869135 4.525652911579684 61.139418243045874 C 0.0 **** -0.24
6902 H 29.375021040793882 3.5166156245289617 61.546757338935684 H 0.0 **** 0.06
6903 H 28.712103626482374 5.16489363567104 61.65092038812261 H 0.0 **** 0.06
6904 H 29.2025237139474 4.499610335375692 60.073583601023834 H 0.0 **** 0.06
6905 H 30.437174295777794 4.920168122591432 61.284399416762504 H 0.0 **** 0.06
6906 C 25.167801404423358 110.11394884152037 88.08206621180895 C 0.0 **** -0.24
6907 H 25.741139800549348 111.02473672604873 88.25694480015758 H 0.0 **** 0.06
6908 H 24.397292036648764 110.01792484489579 88.84800991535218 H 0.0 **** 0.06
6909 H 25.832855912780786 109.25139081363938 88.12509083004895 H 0.0 **** 0.06
6910 H 24.699739900764854 110.16386124244139 87.09943653075871 H 0.0 **** 0.06
6911 C 89.64376442294525 58.28199586988901 14.421617597806403 C 0.0 **** -0.24
6912 H 89.82210762240717 59.32650890846474 14.679445543541362 H 0.0 **** 0.06
6913 H 89.25675447793077 58.2201744134288 13.404547604616653 H 0.0 **** 0.06
6914 H 88.91810212257514 57.85667666493482 15.114465150432068 H 0.0 **** 0.06
6915 H 90.57936131404585 57.72698194570582 14.489969362852719 H 0.0 **** 0.06
6916 C 82.84630458934353 30.232017274539345 110.64530166138431 C 0.0 **** -0.24
6917 H 82.40270126942357 29.359313312942078 110.16520385785044 H 0.0 **** 0.06
6918 H 82.1250120827084 31.04906289111088 110.65126250253061 H 0.0 **** 0.06
6919 H 83.73543168189704 30.536581473957796 110.09351582618577 H 0.0 **** 0.06
6920 H 83.12223290366936 29.982842531501035 111.66984520224426 H 0.0 **** 0.06
6921 C 56.89925410548273 65.12553877652965 89.29736251507512 C 0.0 **** -0.24
6922 H 57.54755040342801 64.3547002458331 89.71349928186314 H 0.0 **** 0.06
6923 H 55.96415050745356 65.15503801765226 89.85681405990809 H 0.0 **** 0.06
6924 H 56.69088377885166 64.89776894493869 88.25100225401914 H 0.0 **** 0.06
6925 H 57.39558669007004 66.09420472696377 89.36540129886095 H 0.0 **** 0.06
6926 C 80.31098753172773 3.479815975727206 98.18678662808432 C 0.0 **** -0.24
6927 H 79.49044371786522 4.198563626051964 98.18956766888456 H 0.0 **** 0.06
6928 H 80.26426627044032 2.8723605224575977 99.09053656717194 H 0.0 **** 0.06
6929 H 81.26072933442316 4.014092167075546 98.15552252212066 H 0.0 **** 0.06
6930 H 80.22621487779327 2.8358876907750528 97.31132164539028 H 0.0 **** 0.06
6931 C 6.900229647503238 104.97866425035647 27.857662732549926 C 0.0 **** -0.24
6932 H 7.979323161278458 105.12741778501001 27.804262205128055 H 0.0 **** 0.06
6933 H 6.3923043269061 105.86446668972164 27.474563597013628 H 0.0 **** 0.06
6934 H 6.607618514737993 104.81043330241451 28.893912228152743 H 0.0 **** 0.06
6935 H 6.623844848900191 104.11251641913412 27.256794763548328 H 0.0 **** 0.06
6936 C 107.94306533085805 36.7008969907713 107.50990531140224 C 0.0 **** -0.24
6937 H 107.61216367358014 36.999400967414914 108.50461352544067 H 0.0 **** 0.06
6938 H 107.1721861367374 36.08861672081299 107.04089341061086 H 0.0 **** 0.06
6939 H 108.86468969337432 36.12503005212628 107.59212908932196 H 0.0 **** 0.06
6940 H 108.12101302269753 37.58930664675944 106.90455431746878 H 0.0 **** 0.06
6941 C 61.716068970322056 104.03230448562547 38.94507108624532 C 0.0 **** -0.24
6942 H 60.927673404188226 103.6132855512476 38.32062695779001 H 0.0 **** 0.06
6943 H 62.382627843395056 104.63881281519292 38.33049319685085 H 0.0 **** 0.06
6944 H 62.28339026972216 103.22308358400073 39.4059822497033 H 0.0 **** 0.06
6945 H 61.27273523344567 104.6542042718506 39.722593950234454 H 0.0 **** 0.06
6946 C 22.65676442062096 63.167624764938296 62.75041793376147 C 0.0 **** -0.24
6947 H 22.59314689868083 62.093668387537036 62.92537356222272 H 0.0 **** 0.06
6948 H 21.94159487212056 63.45326759409119 61.979763283176396 H 0.0 **** 0.06
6949 H 23.66477934327483 63.42295281597728 62.423807371898135 H 0.0 **** 0.06
6950 H 22.428369297014996 63.69956466565543 63.67478023286361 H 0.0 **** 0.06
6951 C 54.58457092300989 102.70922987860015 72.9150610957893 C 0.0 **** -0.24
6952 H 55.378323377553556 102.31146666149871 73.54856130504638 H 0.0 **** 0.06
6953 H 53.83256722609269 101.93812732799401 72.74963671710768 H 0.0 **** 0.06
6954 H 55.00554594166522 103.0192251523302 71.9584013061286 H 0.0 **** 0.06
6955 H 54.12489912933563 103.56741358297373 73.40569798811785 H 0.0 **** 0.06
6956 C 102.15129943375771 115.04039009288758 38.98319164632109 C 0.0 **** -0.24
6957 H 101.09147852510202 115.09589795665536 38.732742973896556 H 0.0 **** 0.06
6958 H 102.56187226421156 116.04871085126288 39.04854643604564 H 0.0 **** 0.06
6959 H 102.67867964966877 114.48295024800689 38.20898953995225 H 0.0 **** 0.06
6960 H 102.2721137932609 114.535464129334 39.9408291251459 H 0.0 **** 0.06
6961 C 94.70550591886308 31.707134474778613 51.34060338582009 C 0.0 **** -0.24
6962 H 95.67046114605589 31.535025969797616 51.81673256991451 H 0.0 **** 0.06
6963 H 94.8231094749492 32.430374784180614 50.5328324411181 H 0.0 **** 0.06
6964 H 94.00057222618801 32.094210848861735 52.076276769484195 H 0.0 **** 0.06
6965 H 94.32819095963598 30.76799135431751 50.93555696319481 H 0.0 **** 0.06
6966 C 59.60629168840004 49.890269052657175 29.626605483672733 C 0.0 **** -0.24
6967 H 59.52385586190666 50.702498716869 28.90469326792018 H 0.0 **** 0.06
6968 H 60.62910090740272 49.512666573079684 29.63372399035663 H 0.0 **** 0.06
6969 H 58.92312212197201 49.087276595679725 29.348613643622826 H 0.0 **** 0.06
6970 H 59.34770327670042 50.2584916616712 30.619140661188112 H 0.0 **** 0.06
6971 C 105.86261267774233 26.29295258848066 36.738696375096254 C 0.0 **** -0.24
6972 H 105.60222225415288 27.351347924977404 36.766085096865226 H 0.0 **** 0.06
6973 H 105.52412061984651 25.811344374455643 37.65600036642586 H 0.0 **** 0.06
6974 H 106.94399878824544 26.187996486287602 36.650145425718776 H 0.0 **** 0.06
6975 H 105.37969790193682 25.82217529805274 35.88170565447375 H 0.0 **** 0.06
6976 C 115.813192819139 91.58380346189259 71.20209045636412 C 0.0 **** -0.24
6977 H 114.90219903701961 92.13686745029051 70.97341269657798 H 0.0 **** 0.06
6978 H 116.54602644981017 92.25909040747123 71.64419270690735 H 0.0 **** 0.06
6979 H 116.21856229016214 91.15639912025827 70.28535491904483 H 0.0 **** 0.06
6980 H 115.58476504155206 90.78417629512779 71.90673370654036 H 0.0 **** 0.06
6981 C 6.600671290888288 52.554271082765034 106.98028566185317 C 0.0 **** -0.24
6982 H 5.998371139325222 51.725217598953265 106.60821196118201 H 0.0 **** 0.06
6983 H 7.559961401058143 52.56725400812646 106.46192290112643 H 0.0 **** 0.06
6984 H 6.768106952046775 52.42946273152856 108.05032966531195 H 0.0 **** 0.06
6985 H 6.077898745134018 53.49374923532185 106.80123085483527 H 0.0 **** 0.06
6986 C 97.11906349294773 38.900436074630534 96.60111044707534 C 0.0 **** -0.24
6987 H 96.48879406122518 38.23491711261971 96.01167097571638 H 0.0 **** 0.06
6988 H 96.79217540132728 38.8828347105231 97.64078555598525 H 0.0 **** 0.06
6989 H 97.03865361481348 39.916001994249896 96.2115784648725 H 0.0 **** 0.06
6990 H 98.15579836952816 38.56853567249286 96.54030816757592 H 0.0 **** 0.06
6991 C 79.44750223970541 73.7420232636959 51.89782285933373 C 0.0 **** -0.24
6992 H 79.70874636236684 74.36764990016383 51.04374040189171 H 0.0 **** 0.06
6993 H 79.4765351420348 74.34104067117045 52.808644613933126 H 0.0 **** 0.06
6994 H 80.1609036385849 72.922604984173 51.97841455707342 H 0.0 **** 0.06
6995 H 78.44456530252774 73.33913219854088 51.759077707009624 H 0.0 **** 0.06
6996 C 20.992547304417513 67.38305216514155 69.94402591943111 C 0.0 **** -0.24
6997 H 21.36500206323202 67.21963395683693 70.95568048094606 H 0.0 **** 0.06
6998 H 20.23582322369017 68.16739750450455 69.9584486702108 H 0.0 **** 0.06
6999 H 20.55397455639176 66.46025501191329 69.5658748198752 H 0.0 **** 0.06
7000 H 21.817536691411515 67.68501993289107 69.29916243227038 H 0.0 **** 0.06
7001 C 71.98364198857541 106.06585554316734 22.10578701859012 C 0.0 **** -0.24
7002 H 71.49213008385624 105.98636636175664 21.136362210411136 H 0.0 **** 0.06
7003 H 71.57390949594708 105.3155610016324 22.78354838623744 H 0.0 **** 0.06
7004 H 71.81478691627353 107.05954580630859 22.519190595246982 H 0.0 **** 0.06
7005 H 73.05396598612901 105.89999299029506 21.98439878277597 H 0.0 **** 0.06
7006 C 31.908240473647055 49.52461006181447 12.057825991960357 C 0.0 **** -0.24
7007 H 31.694842226491062 50.569214701226244 11.836522666195037 H 0.0 **** 0.06
7008 H 31.090845754368104 48.900682231415686 11.6945134861582 H 0.0 **** 0.06
7009 H 32.0130051926032 49.39456420600251 13.135405432278446 H 0.0 **** 0.06
7010 H 32.83607495724718 49.230782516853345 11.565583580056511 H 0.0 **** 0.06
7011 C 18.125631595021318 67.6441058000182 98.71993996700672 C 0.0 **** -0.24
7012 H 17.280756960696742 67.39811592256504 98.076021612533 H 0.0 **** 0.06
7013 H 17.757310633610825 68.07694951564508 99.65071600096172 H 0.0 **** 0.06
7014 H 18.7704601879514 68.36247226572317 98.21472653341618 H 0.0 **** 0.06
7015 H 18.690874343061722 66.73840072015824 98.93836358062094 H 0.0 **** 0.06
7016 C 18.555844463679705 20.902363319271714 76.26802031606337 C 0.0 **** -0.24
7017 H 19.6276379760086 21.095760462671088 76.22460173865983 H 0.0 **** 0.06
7018 H 18.25860685238976 20.73706187262314 77.30358595744877 H 0.0 **** 0.06
7019 H 18.322883045095296 20.016700296337348 75.67596287260079 H 0.0 **** 0.06
7020 H 18.015929940864424 21.759508374412366 75.86619871082286 H 0.0 **** 0.06
7021 C 15.20534883653437 23.709403260400222 28.56749980205518 C 0.0 **** -0.24
7022 H 15.785725052645631 24.43353365458401 29.139127807837212 H 0.0 **** 0.06
7023 H 15.205076672030373 23.993248700678947 27.51461722698761 H 0.0 **** 0.06
7024 H 14.180653604369098 23.690504899886918 28.93936339213147 H 0.0 **** 0.06
7025 H 15.650112237994875 22.719360339506267 28.67669505132895 H 0.0 **** 0.06
7026 C 7.923061203969297 79.32651830711734 109.73178259039749 C 0.0 **** -0.24
7027 H 7.584157865264871 80.29071974269223 110.1105900348964 H 0.0 **** 0.06
7028 H 7.964015742056887 79.35883944133425 108.64247083237753 H 0.0 **** 0.06
7029 H 7.228849770731614 78.54769348693748 110.0466560952143 H 0.0 **** 0.06
7030 H 8.916089610053376 79.11086883949949 110.12718732808987 H 0.0 **** 0.06
7031 C 97.03334956756112 83.14076242233887 115.36816211273246 C 0.0 **** -0.24
7032 H 97.90582084229143 82.49747011802046 115.47836101203913 H 0.0 **** 0.06
7033 H 96.30497902359895 82.65667646110398 114.71683642207815 H 0.0 **** 0.06
7034 H 97.33699072667034 84.09191027668334 114.93152411863916 H 0.0 **** 0.06
7035 H 96.58621677050166 83.31621169292262 116.34606431474138 H 0.0 **** 0.06
7036 C 73.20981584721221 60.26806204209017 37.60549398230606 C 0.0 **** -0.24
7037 H 72.91052207252156 59.38644433803231 38.17297655450065 H 0.0 **** 0.06
7038 H 74.10347078225828 60.039175520615366 37.02454750791185 H 0.0 **** 0.06
7039 H 73.42261761231887 61.086928481078395 38.29284624966587 H 0.0 **** 0.06
7040 H 72.40362560329075 60.55828222789838 36.933035508408665 H 0.0 **** 0.06
7041 C 81.14580150708144 14.966935875827517 59.13130028539754 C 0.0 **** -0.24
7042 H 81.58101342813973 15.38165492693318 60.04078403146863 H 0.0 **** 0.06
7043 H 81.56790777382943 13.97896224638069 58.94475691730409 H 0.0 **** 0.06
7044 H 81.36976304905647 15.622967827938396 58.290012414106485 H 0.0 **** 0.06
7045 H 80.06591611542609 14.883934447922115 59.24957203549519 H 0.0 **** 0.06
7046 C 113.29814243293178 78.87283090690016 50.49332991250776 C 0.0 **** -0.24
7047 H 113.34036113102268 79.70043057193823 49.78490675633665 H 0.0 **** 0.06
7048 H 113.1342676886498 79.2639559589744 51.497732849284745 H 0.0 **** 0.06
7049 H 114.23790308385898 78.3223673879109 50.465621965520995 H 0.0 **** 0.06
7050 H 112.47836531774846 78.20624763165944 50.224435477969905 H 0.0 **** 0.06
7051 C 11.298242819275245 69.5766922548301 64.26842885521933 C 0.0 **** -0.24
7052 H 11.072108114352574 69.05580699942499 63.337708894234375 H 0.0 **** 0.06
7053 H 11.339046954943285 68.85650773031989 65.0861863338834 H 0.0 **** 0.06
7054 H 10.519234676517044 70.3119324407401 64.47033267712811 H 0.0 **** 0.06
7055 H 12.259855584834781 70.08081189690563 64.17868382484437 H 0.0 **** 0.06
7056 C 75.40658761204634 38.907108070337614 82.5661365892309 C 0.0 **** -0.24
7057 H 75.16451895991713 38.50218037336046 83.54855364435247 H 0.0 **** 0.06
7058 H 74.48784827419547 39.047509871181234 81.99613802523334 H 0.0 **** 0.06
7059 H 76.06016728933491 38.21201426686085 82.03815152087844 H 0.0 **** 0.06
7060 H 75.9123332761792 39.86511934714153 82.68280547205535 H 0.0 **** 0.06
7061 C 29.786507917475888 87.5468588570136 74.48725420212833 C 0.0 **** -0.24
7062 H 29.757189477810584 87.92618610484891 73.4649111385049 H 0.0 **** 0.06
7063 H 30.12690542611722 88.33646160240005 75.15688543298859 H 0.0 **** 0.06
7064 H 30.473895878456517 86.70269228726977 74.5405791569107 H 0.0 **** 0.06
7065 H 28.788568785629025 87.2234835334271 74.78320664930067 H 0.0 **** 0.06
7066 C 105.04094680374442 65.44828954754553 47.66842586741554 C 0.0 **** -0.24
7067 H 106.10743943862937 65.34917662245493 47.46929781253144 H 0.0 **** 0.06
7068 H 104.88754227213553 66.15567571668595 48.4826007550036 H 0.0 **** 0.06
7069 H 104.63320737941945 64.47672110070212 47.948385342332834 H 0.0 **** 0.06
7070 H 104.53599634370084 65.80966920487367 46.771945634568745 H 0.0 **** 0.06
7071 C 3.705958163139229 96.07175887484772 25.38748868256488 C 0.0 **** -0.24
7072 H 4.611287570360645 96.66141961459076 25.23778919613744 H 0.0 **** 0.06
7073 H 3.109450138478408 96.51748312131534 26.182580472448024 H 0.0 **** 0.06
7074 H 3.9782764808539923 95.0524615742892 25.663288927881467 H 0.0 **** 0.06
7075 H 3.127176230693422 96.05551896216008 24.463394656497996 H 0.0 **** 0.06
7076 C 87.48949173314759 78.41385531416788 57.28901728071435 C 0.0 **** -0.24
7077 H 86.86192548742991 78.51999712912286 58.174163887739894 H 0.0 **** 0.06
7078 H 88.17983515285817 79.25601770244839 57.230097772643035 H 0.0 **** 0.06
7079 H 86.86111011217139 78.39640236750128 56.39874604230272 H 0.0 **** 0.06
7080 H 88.05427095991712 77.48415204564228 57.353096791787664 H 0.0 **** 0.06
7081 C 18.32543200409981 33.62925831355837 77.51208109833098 C 0.0 **** -0.24
7082 H 18.44540864716521 32.78886968193062 76.82832637474414 H 0.0 **** 0.06
7083 H 17.647171834220785 34.361199842692194 77.07154187578365 H 0.0 **** 0.06
7084 H 19.294442958176802 34.09417393956909 77.69124902569726 H 0.0 **** 0.06
7085 H 17.912593374487557 33.27435411185787 78.45616012794056 H 0.0 **** 0.06
7086 C 33.714271069218654 86.09601310929602 91.39575284747889 C 0.0 **** -0.24
7087 H 34.46279497614742 86.83566152015368 91.11395313577214 H 0.0 **** 0.06
7088 H 32.75305255830253 86.3656543723462 90.95796575246214 H 0.0 **** 0.06
7089 H 33.62320957476166 86.06665847347892 92.48191495382827 H 0.0 **** 0.06
7090 H 34.01711472504621 85.11430552985001 91.03060088685436 H 0.0 **** 0.06
7091 C 11.736627376609135 92.56226871529287 78.19499158735297 C 0.0 **** -0.24
7092 H 12.573274293624323 92.35092626795881 78.86111341295396 H 0.0 **** 0.06
7093 H 12.027891590821099 93.33160106802956 77.47866208607729 H 0.0 **** 0.06
7094 H 10.886813203621045 92.91349902963756 78.78010276594145 H 0.0 **** 0.06
7095 H 11.459691244012859 91.65422996345617 77.6605948304819 H 0.0 **** 0.06
7096 C 15.527696555077398 20.891860579198664 70.7055388355383 C 0.0 **** -0.24
7097 H 14.592432977076925 20.455789834729416 70.35605457605038 H 0.0 **** 0.06
7098 H 16.073177739567114 21.30716266680909 69.85837096763541 H 0.0 **** 0.06
7099 H 16.13174470784429 20.120362095832007 71.18397998771519 H 0.0 **** 0.06
7100 H 15.312633833223089 21.68314605230009 71.42438329032962 H 0.0 **** 0.06
7101 C 48.51544015459104 68.5327135837924 86.40322407782438 C 0.0 **** -0.24
7102 H 48.40864029258619 68.29438894430734 85.34430283278616 H 0.0 **** 0.06
7103 H 49.55205492480019 68.79868485142853 86.61243240685945 H 0.0 **** 0.06
7104 H 48.23382406134479 67.66551446507526 87.000028062235 H 0.0 **** 0.06
7105 H 47.86725226532889 69.37215157599172 86.65368615039924 H 0.0 **** 0.06
7106 C 45.19831033749898 59.65802826426639 86.54368731246245 C 0.0 **** -0.24
7107 H 45.09931955420709 60.00309479084825 85.51337278924805 H 0.0 **** 0.06
7108 H 44.68575777306185 60.352286806066104 87.20941540957858 H 0.0 **** 0.06
7109 H 46.25403171662472 59.610173405659566 86.8098624865874 H 0.0 **** 0.06
7110 H 44.75388438706796 58.66780021369047 86.63937898742316 H 0.0 **** 0.06
7111 C 86.71957492834633 3.453517685673603 31.48249859113882 C 0.0 **** -0.24
7112 H 87.52268686344229 3.9403035891016316 30.929422959707765 H 0.0 **** 0.06
7113 H 85.80709435569591 4.043243408596709 31.390711972830516 H 0.0 **** 0.06
7114 H 86.99848739065436 3.3743998899832377 32.53304471322316 H 0.0 **** 0.06
7115 H 86.55131370017185 2.4567231703629773 31.07508380649827 H 0.0 **** 0.06
7116 C 105.25547165229767 102.02901292952225 79.819199194477 C 0.0 **** -0.24
7117 H 105.80698377165317 101.30593146185868 79.21745705962718 H 0.0 **** 0.06
7118 H 104.18878670150994 101.92945928889048 79.6196115637049 H 0.0 **** 0.06
7119 H 105.58052155252048 103.03715498971218 79.56184317240246 H 0.0 **** 0.06
7120 H 105.44745110118541 101.84380148324095 80.8755469186604 H 0.0 **** 0.06
7121 C 10.00724995198189 114.16343888909275 19.30987298489748 C 0.0 **** -0.24
7122 H 9.125165046412633 113.88764631972136 18.732170959528503 H 0.0 **** 0.06
7123 H 10.623486236247004 114.84809099703625 18.72722189625864 H 0.0 **** 0.06
7124 H 10.581461441573367 113.26716753415296 19.54573273273786 H 0.0 **** 0.06
7125 H 9.698103728176108 114.64944273009941 20.23500206614534 H 0.0 **** 0.06
7126 C 111.89837340086446 104.9329660525593 106.4203399881346 C 0.0 **** -0.24
7127 H 112.01652793852938 103.87635580226453 106.17701030207897 H 0.0 **** 0.06
7128 H 112.25821938408194 105.53905875439287 105.58800678665818 H 0.0 **** 0.06
7129 H 112.47442555290587 105.1652273086483 107.31599929033541 H 0.0 **** 0.06
7130 H 110.84550688654888 105.14819232943555 106.59849618434879 H 0.0 **** 0.06
7131 C 29.41466308266098 101.94968058291977 63.46114368758419 C 0.0 **** -0.24
7132 H 28.914294019716976 100.98212160215601 63.46321598006012 H 0.0 **** 0.06
7133 H 30.127787138514464 101.98928133561947 62.63705334508669 H 0.0 **** 0.06
7134 H 29.941286365454687 102.08778145223769 64.40589290440099 H 0.0 **** 0.06
7135 H 28.67388656513964 102.74074229283107 63.339675354245266 H 0.0 **** 0.06
7136 C 88.39253816052576 8.939233875327716 85.1309035600093 C 0.0 **** -0.24
7137 H 88.18598404041376 8.840872596757436 86.1963881400352 H 0.0 **** 0.06
7138 H 89.31720723473646 8.414434002425537 84.89030810254607 H 0.0 **** 0.06
7139 H 88.49704191525129 9.995127687998888 84.87744685508241 H 0.0 **** 0.06
7140 H 87.57057134014718 8.508859956499464 84.55936286411006 H 0.0 **** 0.06
7141 C 24.267412776100798 45.318539865566294 109.54275790757785 C 0.0 **** -0.24
7142 H 24.534635650725818 46.343179643585984 109.28025962641723 H 0.0 **** 0.06
7143 H 24.553071855954897 45.12335709265949 110.57629432613666 H 0.0 **** 0.06
7144 H 24.79015919007975 44.62681878465693 108.88295108795305 H 0.0 **** 0.06
7145 H 23.191267747275333 45.18498479536228 109.43102204367256 H 0.0 **** 0.06
7146 C 6.956117638785324 46.27055410397912 43.32417502466794 C 0.0 **** -0.24
7147 H 6.50006973060956 46.59309051438322 42.38855518009518 H 0.0 **** 0.06
7148 H 6.269305972049745 46.46232912291481 44.147867913665124 H 0.0 **** 0.06
7149 H 7.8816285978479 46.82333720393103 43.48559769910631 H 0.0 **** 0.06
7150 H 7.174751048786623 45.20438857748621 43.27310242659746 H 0.0 **** 0.06
7151 C 97.22383112156564 41.12193693774816 113.43773324828396 C 0.0 **** -0.24
7152 H 96.75884435401173 40.8750114576531 112.48283789735 H 0.0 **** 0.06
7153 H 96.88339243431574 40.42001853918009 114.19872339509098 H 0.0 **** 0.06
7154 H 96.94414677790175 42.13509154327909 113.72642750771514 H 0.0 **** 0.06
7155 H 98.3070942204923 41.05683108477348 113.34154497048885 H 0.0 **** 0.06
7156 C 31.55058381943681 44.932599725990485 44.36867258065868 C 0.0 **** -0.24
7157 H 30.876722587988496 44.13101390876699 44.67304447733102 H 0.0 **** 0.06
7158 H 31.15350259554441 45.889494813915064 44.70819767021044 H 0.0 **** 0.06
7159 H 31.63918604331198 44.94026021437935 43.283162184524514 H 0.0 **** 0.06
7160 H 32.53241146626769 44.76824436122996 44.81308204751008 H 0.0 **** 0.06
7161 C 69.23445700732128 62.862990513738225 98.40350992366143 C 0.0 **** -0.24
7162 H 68.82881368501347 63.87255218141058 98.34329648683607 H 0.0 **** 0.06
7163 H 70.31789791914426 62.91441033663938 98.51932815252567 H 0.0 **** 0.06
7164 H 68.99149325551389 62.31857587526321 97.49096387809604 H 0.0 **** 0.06
7165 H 68.80115765752669 62.34769451869744 99.26062582363778 H 0.0 **** 0.06
7166 C 58.80926637947934 55.61839811442661 16.310803813866514 C 0.0 **** -0.24
7167 H 58.69468487265124 55.60449699982672 15.227136993916346 H 0.0 **** 0.06
7168 H 57.84365528428816 55.82376433859878 16.77486092039055 H 0.0 **** 0.06
7169 H 59.520063427831616 56.39606101535111 16.591344306930367 H 0.0 **** 0.06
7170 H 59.1774605628724 54.65041271437872 16.64937171100334 H 0.0 **** 0.06
7171 C 36.57754611583913 73.93434753502305 19.075627704693147 C 0.0 **** -0.24
7172 H 36.214162984022536 74.02503737143905 20.098881814380093 H 0.0 **** 0.06
7173 H 36.91159275494613 74.91001037139057 18.721370890810988 H 0.0 **** 0.06
7174 H 35.77398001857176 73.57128998360707 18.435960896333597 H 0.0 **** 0.06
7175 H 37.41095969640983 73.23231747677596 19.046669534335706 H 0.0 **** 0.06
7176 C 31.913827334268376 104.80449533806404 27.89638238020791 C 0.0 **** -0.24
7177 H 31.493609706309684 104.03297546646974 27.252531390000286 H 0.0 **** 0.06
7178 H 32.95163171082277 104.56072480015735 28.125539568131387 H 0.0 **** 0.06
7179 H 31.34093363526003 104.85782462746349 28.82178970823435 H 0.0 **** 0.06
7180 H 31.8708310859231 105.76773351739888 27.38636905123093 H 0.0 **** 0.06
7181 C 11.31677905137829 107.21011064968198 16.280787301030756 C 0.0 **** -0.24
7182 H 12.026522239621897 107.93765523867754 16.67471933953918 H 0.0 **** 0.06
7183 H 11.831387926661733 106.53498077474157 15.5968901330385 H 0.0 **** 0.06
7184 H 10.52081275090542 107.72972800630615 15.748773833687153 H 0.0 **** 0.06
7185 H 10.890610225619469 106.63694954518331 17.104959322170274 H 0.0 **** 0.06
7186 C 87.26590995558493 40.449336791060375 35.94833665180649 C 0.0 **** -0.24
7187 H 87.77219252938261 39.50045285527801 35.773450546364856 H 0.0 **** 0.06
7188 H 87.44427918993179 41.11656507206055 35.10523358168706 H 0.0 **** 0.06
7189 H 87.65116859219808 40.904067019441186 36.86032738617904 H 0.0 **** 0.06
7190 H 86.1952424473615 40.275196978122096 36.053794504280674 H 0.0 **** 0.06
7191 C 70.79062721690161 70.89638132064283 0.14031754382253325 C 0.0 **** -0.24
7192 H 71.00040347296547 71.91117569252032 -0.1970979936969286 H 0.0 **** 0.06
7193 H 70.83937444226726 70.21405809291542 -0.7083742099729875 H 0.0 **** 0.06
7194 H 69.7936027789847 70.85887483865912 0.5805567598678749 H 0.0 **** 0.06
7195 H 71.52881692152721 70.60206521349352 0.8874032457872261 H 0.0 **** 0.06
7196 C 56.869552227105544 94.70340567225745 71.2409753520657 C 0.0 **** -0.24
7197 H 57.48306995639993 94.65345425134666 70.3414778198705 H 0.0 **** 0.06
7198 H 56.018148347338894 95.36191315112785 71.06378222450553 H 0.0 **** 0.06
7199 H 57.46582118956718 95.09451444893278 72.06586823222818 H 0.0 **** 0.06
7200 H 56.510988870829294 93.70573233320388 71.4928128973321 H 0.0 **** 0.06
7201 C 100.06783870138247 33.70973271994609 86.9495762824103 C 0.0 **** -0.24
7202 H 98.99380991401341 33.52281969894691 86.94211460873106 H 0.0 **** 0.06
7203 H 100.54077943273637 33.082526631899036 87.70517508236088 H 0.0 **** 0.06
7204 H 100.25238431346094 34.75935095115863 87.18134455146921 H 0.0 **** 0.06
7205 H 100.48367936484274 33.47595235872249 85.96892684596244 H 0.0 **** 0.06
7206 C 28.985205614585624 95.57691990006526 79.88798368021398 C 0.0 **** -0.24
7207 H 28.122309402368643 95.5647857477149 80.554023370247 H 0.0 **** 0.06
7208 H 29.889222770864052 95.37314663923746 80.46216781900418 H 0.0 **** 0.06
7209 H 29.066430600633993 96.55605943720218 79.41710453224056 H 0.0 **** 0.06
7210 H 28.86208668258368 94.81322070993053 79.12011700187188 H 0.0 **** 0.06
7211 C 9.243784293340923 22.058651679756736 97.3889781169405 C 0.0 **** -0.24
7212 H 10.126638495659137 22.547106377147486 97.80033244205242 H 0.0 **** 0.06
7213 H 9.206333622817112 22.223995868001623 96.31192948711703 H 0.0 **** 0.06
7214 H 8.348876371786531 22.474248704387946 97.85251011162666 H 0.0 **** 0.06
7215 H 9.293945644620067 20.988246397615853 97.59039901879055 H 0.0 **** 0.06
7216 C 47.60480811249573 54.19995579504325 77.52814395143676 C 0.0 **** -0.24
7217 H 48.18615032788435 54.63065012150764 76.71300557074 H 0.0 **** 0.06
7218 H 47.66378060095482 54.851408516078465 78.40070892268616 H 0.0 **** 0.06
7219 H 48.00426541684135 53.21778617472489 77.78021466472114 H 0.0 **** 0.06
7220 H 46.56425781776966 54.10055402796121 77.21889753317748 H 0.0 **** 0.06
7221 C 5.661611976015138 55.91040790259989 22.496323456901962 C 0.0 **** -0.24
7222 H 6.091363595789062 55.08042537804502 23.058758007116325 H 0.0 **** 0.06
7223 H 6.400472890237694 56.70618426605464 22.402246415944006 H 0.0 **** 0.06
7224 H 4.784720197810799 56.28871256416459 23.020626127651198 H 0.0 **** 0.06
7225 H 5.371285820770737 55.56450265194225 21.504552710059215 H 0.0 **** 0.06
7226 C 81.40166084056659 44.16244199256275 11.838847745537748 C 0.0 **** -0.24
7227 H 81.69459258704737 44.224239569904256 12.887702888443428 H 0.0 **** 0.06
7228 H 80.58082053602237 43.45225578348527 11.732185707149739 H 0.0 **** 0.06
7229 H 82.25209565254593 43.828352823326924 11.24423523202907 H 0.0 **** 0.06
7230 H 81.07981302083292 45.14471203347526 11.494348898080062 H 0.0 **** 0.06
7231 C 21.042559298118903 43.376638837760765 99.40112647942345 C 0.0 **** -0.24
7232 H 21.8376353920454 43.300566830713194 98.65976153008859 H 0.0 **** 0.06
7233 H 21.132162480012852 44.32491156349772 99.9331576821395 H 0.0 **** 0.06
7234 H 21.12799123205636 42.55356482744321 100.11019522794388 H 0.0 **** 0.06
7235 H 20.074742750970103 43.328478674584005 98.90273340833042 H 0.0 **** 0.06
7236 C 56.640673565069925 1.974231240134129 27.7722238513619 C 0.0 **** -0.24
7237 H 57.12202420749856 1.723767179611901 26.827407350117852 H 0.0 **** 0.06
7238 H 55.66969456057763 1.48192868649463 27.826830958951973 H 0.0 **** 0.06
7239 H 56.504010118010775 3.054381938881651 27.83521281140051 H 0.0 **** 0.06
7240 H 57.26572351424114 1.6380189496192106 28.59915298330364 H 0.0 **** 0.06
7241 C 22.124775056947907 67.88559436871748 95.4064520242834 C 0.0 **** -0.24
7242 H 22.73071505682124 67.1206754018697 95.89391664814644 H 0.0 **** 0.06
7243 H 22.757339460057704 68.49139097037698 94.75873786284097 H 0.0 **** 0.06
7244 H 21.664497028395555 68.51985181532658 96.16378389947607 H 0.0 **** 0.06
7245 H 21.346543114785128 67.40690830388459 94.8118978458337 H 0.0 **** 0.06
7246 C 52.604889723788844 61.772184454046794 17.73269649172724 C 0.0 **** -0.24
7247 H 51.556921522715726 61.8081992680265 18.02980006073676 H 0.0 **** 0.06
7248 H 53.16976817072515 62.50741200657535 18.306303312226618 H 0.0 **** 0.06
7249 H 52.68939563213502 61.99764783139375 16.669674866512793 H 0.0 **** 0.06
7250 H 53.00387259731389 60.77649336452106 17.925908487977296 H 0.0 **** 0.06
7251 C 91.99587704619515 84.01246543915934 70.4921087723431 C 0.0 **** -0.24
7252 H 91.01635234011295 83.9651155618642 70.01489982214136 H 0.0 **** 0.06
7253 H 92.60398194670594 84.77005258975623 69.99773734692494 H 0.0 **** 0.06
7254 H 92.48667061188578 83.04224100924307 70.4116337398882 H 0.0 **** 0.06
7255 H 91.87409808123661 84.27288555809051 71.5439972025359 H 0.0 **** 0.06
7256 C 8.721577334907181 97.14625252313269 101.978969317133 C 0.0 **** -0.24
7257 H 9.725086090215939 97.46213621318697 101.69402084430823 H 0.0 **** 0.06
7258 H 8.74865330859052 96.70709220868196 102.976371990486 H 0.0 **** 0.06
7259 H 8.357416434914853 96.40590982667084 101.26636738032732 H 0.0 **** 0.06
7260 H 8.055743805318514 98.008340160219 101.97966992371892 H 0.0 **** 0.06
7261 C 33.34158207638359 24.168585142515553 106.19032065112208 C 0.0 **** -0.24
7262 H 33.09945181517253 23.91926983753217 107.22347058472963 H 0.0 **** 0.06
7263 H 32.43551599668899 24.476049351754938 105.66893217786654 H 0.0 **** 0.06
7264 H 33.7678260046377 23.296310812979556 105.69580016159179 H 0.0 **** 0.06
7265 H 34.06540366101916 24.985026309777822 106.17485287847384 H 0.0 **** 0.06
7266 C 24.842534450351877 89.64097708387771 50.568238379612374 C 0.0 **** -0.24
7267 H 24.384056269137318 88.71690214618525 50.214616697823374 H 0.0 **** 0.06
7268 H 25.34816030159294 90.13629688009948 49.73914322195216 H 0.0 **** 0.06
7269 H 25.567216540658194 89.41057293707445 51.35026834205517 H 0.0 **** 0.06
7270 H 24.07176434054651 90.29799577327128 50.96946869520144 H 0.0 **** 0.06
7271 C 12.679829171281455 88.97660741958254 14.994250676101117 C 0.0 **** -0.24
7272 H 12.296955438132073 87.96807879711389 15.152081972731338 H 0.0 **** 0.06
7273 H 13.404112672455398 89.21629194217385 15.772301872356223 H 0.0 **** 0.06
7274 H 11.854345951060452 89.68837949443551 15.034000142445564 H 0.0 **** 0.06
7275 H 13.16217843615749 89.03358851964506 14.018480568818788 H 0.0 **** 0.06
7276 C 33.88316392440237 12.871743542220742 31.775807309110206 C 0.0 **** -0.24
7277 H 33.96000902950763 12.048203366418335 31.066472884363492 H 0.0 **** 0.06
7278 H 33.06060757397702 13.525408192722253 31.48636903568317 H 0.0 **** 0.06
7279 H 34.81474922946467 13.43818464309841 31.777880766638987 H 0.0 **** 0.06
7280 H 33.698324665710885 12.474558530653923 32.7743895728799 H 0.0 **** 0.06
7281 C 13.105448053083421 82.03801474667429 95.58142829941121 C 0.0 **** -0.24
7282 H 13.434182520233463 82.3548621525263 94.5911271341665 H 0.0 **** 0.06
7283 H 12.131044070081686 81.55653576242472 95.50372510988944 H 0.0 **** 0.06
7284 H 13.030505656792087 82.90830312713516 96.23377771878009 H 0.0 **** 0.06
7285 H 13.827846518028224 81.33477913637458 95.99568799358312 H 0.0 **** 0.06
7286 C 83.2648388223742 37.947663482707654 48.213100507698755 C 0.0 **** -0.24
7287 H 82.25037306369012 38.09655571560744 48.58201547405045 H 0.0 **** 0.06
7288 H 83.24944671767767 37.87626145804578 47.12540118436411 H 0.0 **** 0.06
7289 H 83.6726133644982 37.02699441438724 48.631372427453215 H 0.0 **** 0.06
7290 H 83.88839005154108 38.78998065923449 48.51393375946313 H 0.0 **** 0.06
7291 C 71.95871086303737 65.04114100108808 5.563685682629568 C 0.0 **** -0.24
7292 H 71.96097562160193 64.39447840603921 6.441458065874713 H 0.0 **** 0.06
7293 H 72.9270031108473 64.98114530947265 5.066517079044729 H 0.0 **** 0.06
7294 H 71.76969285717735 66.06909756258509 5.8712200748711325 H 0.0 **** 0.06
7295 H 71.1768911055008 64.71699388637325 4.876891336356437 H 0.0 **** 0.06
7296 C 4.525044565620078 16.504938806100284 94.18889344117255 C 0.0 **** -0.24
7297 H 5.455344081826979 16.965329270276555 94.52371052279125 H 0.0 **** 0.06
7298 H 4.540532240144586 15.441508826977866 94.42621966952811 H 0.0 **** 0.06
7299 H 4.422124055103723 16.636625743149693 93.1119487519752 H 0.0 **** 0.06
7300 H 3.6835368471310517 16.979197722306225 94.69534016999538 H 0.0 **** 0.06
7301 C 11.868172673253806 109.63091993825492 31.84849186313747 C 0.0 **** -0.24
7302 H 12.807641197029952 109.9733723995542 32.282206242564115 H 0.0 **** 0.06
7303 H 12.074291474291137 109.03578887835431 30.958733446358337 H 0.0 **** 0.06
7304 H 11.258363417619698 110.4927502559571 31.576272876899196 H 0.0 **** 0.06
7305 H 11.3320409487362 109.02259422895935 32.57719385569493 H 0.0 **** 0.06
7306 C 2.4245474196136847 56.10330071172672 43.15903806101795 C 0.0 **** -0.24
7307 H 2.6091575199812116 57.03703925609054 42.629000952520244 H 0.0 **** 0.06
7308 H 2.234753582573992 56.31549807550715 44.21209250029614 H 0.0 **** 0.06
7309 H 3.296524541643798 55.45558586952316 43.069682964818185 H 0.0 **** 0.06
7310 H 1.5560909156313887 55.605532392648456 42.72639036520968 H 0.0 **** 0.06
7311 C 2.149781474046147 50.081376425799235 1.7301161929303248 C 0.0 **** -0.24
7312 H 3.1171762640156917 49.60391969341131 1.5694163370517913 H 0.0 **** 0.06
7313 H 1.3869961918843732 49.316654533874555 1.8747777827708063 H 0.0 **** 0.06
7314 H 1.8968777587251946 50.68792433857365 0.8601700231421319 H 0.0 **** 0.06
7315 H 2.2016352836798294 50.71727286826617 2.6138072328649287 H 0.0 **** 0.06
7316 C 19.554508093635434 65.03926996556584 93.1522097836642 C 0.0 **** -0.24
7317 H 18.83361074765554 64.77488216451158 93.92634421482211 H 0.0 **** 0.06
7318 H 19.29471386938053 64.5277351176315 92.22467643894169 H 0.0 **** 0.06
7319 H 20.553057565378083 64.73655185066787 93.46813649445045 H 0.0 **** 0.06
7320 H 19.534877123429112 66.11689553505175 92.99059077572991 H 0.0 **** 0.06
7321 C 7.778936973081244 23.343922101849444 0.5951218444588307 C 0.0 **** -0.24
7322 H 6.709722352296637 23.43884427015678 0.404525757606109 H 0.0 **** 0.06
7323 H 8.321858317653152 23.38872877972517 -0.34945837594364093 H 0.0 **** 0.06
7324 H 7.976914645924467 22.388946262506124 1.0834107338794183 H 0.0 **** 0.06
7325 H 8.106249945782196 24.15697346278654 1.2424267298762004 H 0.0 **** 0.06
7326 C 58.85620074638411 1.6914349775761597 77.42338946024711 C 0.0 **** -0.24
7327 H 59.1712301373965 1.398232287512176 78.42400303903128 H 0.0 **** 0.06
7328 H 59.49668460970067 2.4961137215255587 77.06186003653127 H 0.0 **** 0.06
7329 H 57.82180907021681 2.0349771289204863 77.4539289962141 H 0.0 **** 0.06
7330 H 58.934387207292865 0.8358391164091099 76.75267598951427 H 0.0 **** 0.06
7331 C 79.28595556431009 111.24179428764899 68.99342600551506 C 0.0 **** -0.24
7332 H 79.5915613415911 110.88171820462384 68.0101913503384 H 0.0 **** 0.06
7333 H 78.48416960333765 111.9708473287152 68.88011735611207 H 0.0 **** 0.06
7334 H 80.1363447717579 111.71037129058536 69.4883428957965 H 0.0 **** 0.06
7335 H 78.93267399391164 110.40236147345534 69.59315236579835 H 0.0 **** 0.06
7336 C 13.977027480067932 16.02806440643269 30.31035929769193 C 0.0 **** -0.24
7337 H 13.560523797958979 15.063902950784609 30.018120768799463 H 0.0 **** 0.06
7338 H 13.998562794955092 16.09847073157539 31.398064298727377 H 0.0 **** 0.06
7339 H 13.359107591670238 16.828392774554402 29.904762937017637 H 0.0 **** 0.06
7340 H 14.991241961079652 16.118071864068895 29.919747368219333 H 0.0 **** 0.06
7341 C 62.464113555353606 44.0228709268074 71.0959442948002 C 0.0 **** -0.24
7342 H 61.79099117254441 44.677906542378366 71.6487521688421 H 0.0 **** 0.06
7343 H 63.387984132900016 44.557414269354695 70.87058757816794 H 0.0 **** 0.06
7344 H 61.98761667562104 43.71340178356644 70.1658139113791 H 0.0 **** 0.06
7345 H 62.69076336648962 43.14374927736816 71.69908353912069 H 0.0 **** 0.06
7346 C 112.66027291994524 96.55988809117096 67.92623571361818 C 0.0 **** -0.24
7347 H 113.46625973067765 95.83040936599406 68.0028907087999 H 0.0 **** 0.06
7348 H 112.47299700812013 96.78618615479255 66.87580866898327 H 0.0 **** 0.06
7349 H 112.94600010906956 97.47302810733359 68.44985326374896 H 0.0 **** 0.06
7350 H 111.75552163983731 96.15098753255961 68.3772739424596 H 0.0 **** 0.06
7351 C 75.20550058308777 67.96669132076923 56.06367341028584 C 0.0 **** -0.24
7352 H 74.49033862086378 68.77675757944994 55.92251406819636 H 0.0 **** 0.06
7353 H 74.85987270152168 67.31195229417887 56.86397408505355 H 0.0 **** 0.06
7354 H 76.17809998957759 68.38325355660339 56.32780657647128 H 0.0 **** 0.06
7355 H 75.29351050937274 67.39572802685771 55.139345472496366 H 0.0 **** 0.06
7356 C 94.8554375074458 72.28844671428874 3.822718079191546 C 0.0 **** -0.24
7357 H 95.78713144700453 72.47346472205754 4.356138767571025 H 0.0 **** 0.06
7358 H 94.27948976462235 73.21183251065617 3.7666217412000265 H 0.0 **** 0.06
7359 H 94.27761760693639 71.53041197592131 4.351408402232494 H 0.0 **** 0.06
7360 H 95.07768659220758 71.93669567944141 2.814688523315155 H 0.0 **** 0.06
7361 C 47.84085485079452 40.371541668537404 38.51706496684437 C 0.0 **** -0.24
7362 H 48.3466403813573 39.40754870297169 38.57421862027465 H 0.0 **** 0.06
7363 H 46.898281297982294 40.2558265961314 37.981606181439105 H 0.0 **** 0.06
7364 H 48.475372202814086 41.08367849813158 37.98977110849199 H 0.0 **** 0.06
7365 H 47.64324255976198 40.73790540171282 39.52425409482919 H 0.0 **** 0.06
7366 C 59.65162789344502 62.90753131706092 46.5275749219615 C 0.0 **** -0.24
7367 H 59.584955968589064 61.864434324883085 46.21775157400026 H 0.0 **** 0.06
7368 H 58.704421279555085 63.216901272142074 46.96821056150458 H 0.0 **** 0.06
7369 H 59.869900989678634 63.53008831008483 45.659486417517826 H 0.0 **** 0.06
7370 H 60.4486161134358 63.01757483483039 47.26317208353356 H 0.0 **** 0.06
7371 C 60.132587745516496 83.17506935531827 84.74440511009774 C 0.0 **** -0.24
7372 H 60.590144823712144 82.21449019046526 84.50753983660692 H 0.0 **** 0.06
7373 H 60.76342877251171 83.98013479425146 84.36711315078418 H 0.0 **** 0.06
7374 H 60.02848097224565 83.27081417906138 85.82499275066428 H 0.0 **** 0.06
7375 H 59.1499039385811 83.23304271380513 84.27753625669416 H 0.0 **** 0.06
7376 C 40.64168311016533 103.94576673867641 3.2834994692114208 C 0.0 **** -0.24
7377 H 41.62366774024915 104.41928711104538 3.2655091590697225 H 0.0 **** 0.06
7378 H 40.0334311805629 104.40046866176633 4.065396339423842 H 0.0 **** 0.06
7379 H 40.75660485078697 102.88023771779007 3.4838089751117423 H 0.0 **** 0.06
7380 H 40.15553325041765 104.08253099720068 2.3180862122393364 H 0.0 **** 0.06
7381 C 8.429748622891509 50.44383294661941 91.65572397338161 C 0.0 **** -0.24
7382 H 9.012605105654004 49.79866420874782 90.99939364038747 H 0.0 **** 0.06
7383 H 8.165845744024153 49.89856029507342 92.56167537869084 H 0.0 **** 0.06
7384 H 7.520038951995858 50.7570118009657 91.14173818986515 H 0.0 **** 0.06
7385 H 9.019681643908598 51.32218211133585 91.9180534500455 H 0.0 **** 0.06
7386 C 86.66238798285346 46.215590479933184 66.58331108965189 C 0.0 **** -0.24
7387 H 86.09060071092105 46.17050748462721 65.65641799735235 H 0.0 **** 0.06
7388 H 86.30094151341058 47.04422117708494 67.19348538343965 H 0.0 **** 0.06
7389 H 87.71715729784435 46.36523278225398 66.35281849497338 H 0.0 **** 0.06
7390 H 86.53907394209904 45.281388167431665 67.13142391321756 H 0.0 **** 0.06
7391 C 72.40901973471898 96.17695587700601 60.21251848764627 C 0.0 **** -0.24
7392 H 73.19174258707895 96.45565612676066 59.50622595980237 H 0.0 **** 0.06
7393 H 71.44264320505036 96.50861254123669 59.83234846904353 H 0.0 **** 0.06
7394 H 72.60433856514993 96.65056772437651 61.174893346004374 H 0.0 **** 0.06
7395 H 72.4002981809212 95.09386087509992 60.33535221959833 H 0.0 **** 0.06
7396 C 115.49904197881034 23.307667761880708 101.70558288497443 C 0.0 **** -0.24
7397 H 116.12260513713727 22.823257144009375 102.4564032727406 H 0.0 **** 0.06
7398 H 116.02117387485558 23.314267690611132 100.74898910069007 H 0.0 **** 0.06
7399 H 115.2910332697993 24.332582823869245 102.01302306749128 H 0.0 **** 0.06
7400 H 114.56088029345446 22.760996283301154 101.60468207057559 H 0.0 **** 0.06
7401 C 28.606895166247682 31.215475330603056 113.35877881302878 C 0.0 **** -0.24
7402 H 29.563246992957374 30.917985625161386 113.78830529058995 H 0.0 **** 0.06
7403 H 28.433031486419225 30.656242636860114 112.43822772112709 H 0.0 **** 0.06
7404 H 28.62405960456232 32.28252043531103 113.13901294187123 H 0.0 **** 0.06
7405 H 27.807890997421396 31.00284480617941 114.07007316005132 H 0.0 **** 0.06
7406 C 100.15269933719816 38.79322483702049 25.49826278936402 C 0.0 **** -0.24
7407 H 100.0623104015865 37.87710833651448 24.91345304179488 H 0.0 **** 0.06
7408 H 100.21565231444958 39.64818160160189 24.824533718767142 H 0.0 **** 0.06
7409 H 101.05252128160811 38.74509242215112 26.111397109279125 H 0.0 **** 0.06
7410 H 99.27970012646202 38.9003448962539 26.141690801797623 H 0.0 **** 0.06
7411 C 16.11302703053977 63.61166337346134 81.03917572375485 C 0.0 **** -0.24
7412 H 15.383105661925185 63.72456523375314 80.23753557123189 H 0.0 **** 0.06
7413 H 15.875152455442958 62.72437422976526 81.62628104120336 H 0.0 **** 0.06
7414 H 16.085361451214567 64.49129642965056 81.6813090393814 H 0.0 **** 0.06
7415 H 17.10989536156228 63.506874002351026 80.61023083278923 H 0.0 **** 0.06
7416 C 64.51519972080698 68.957175269853 34.54077333573201 C 0.0 **** -0.24
7417 H 64.29921302305777 69.79913037818474 33.88159549894655 H 0.0 **** 0.06
7418 H 65.58659658319903 68.91200061783914 34.73288764040274 H 0.0 **** 0.06
7419 H 64.19194679961478 68.03153546864769 34.06372772216267 H 0.0 **** 0.06
7420 H 63.981613033770934 69.08739460896416 35.48221644591419 H 0.0 **** 0.06
7421 C 95.14098075950164 104.35096664433846 64.4316700881057 C 0.0 **** -0.24
7422 H 95.41776192999339 103.67277826083608 65.23891086396355 H 0.0 **** 0.06
7423 H 94.2399233758959 103.98290862747851 63.94076086220763 H 0.0 **** 0.06
7424 H 95.9545110579613 104.40361924196995 63.706921700745674 H 0.0 **** 0.06
7425 H 94.953678061951 105.34412333069912 64.8400516104681 H 0.0 **** 0.06
7426 C 69.51155565064158 111.91937766190233 25.364779421305144 C 0.0 **** -0.24
7427 H 69.11281967142219 110.9307563317162 25.595412319895303 H 0.0 **** 0.06
7428 H 69.2680709315186 112.1768132425637 24.333995216447306 H 0.0 **** 0.06
7429 H 70.59461447336474 111.91176014494005 25.491572899440854 H 0.0 **** 0.06
7430 H 69.0724944109266 112.6548974464807 26.0383867291728 H 0.0 **** 0.06
7431 C 88.52690154497367 92.62739662864593 66.63033290763207 C 0.0 **** -0.24
7432 H 87.63811621195958 92.99162036765199 66.11393022288695 H 0.0 **** 0.06
7433 H 88.2273714508649 92.03167354559108 67.49241682370265 H 0.0 **** 0.06
7434 H 89.12555854129593 93.47553438275483 66.96429575469637 H 0.0 **** 0.06
7435 H 89.1158309658889 92.01303166727465 65.94887210193878 H 0.0 **** 0.06
7436 C 5.653468909220024 71.19953829594613 97.17682843175677 C 0.0 **** -0.24
7437 H 5.061626234463574 72.11507146533049 97.18888080257739 H 0.0 **** 0.06
7438 H 5.298102764600458 70.52848603873372 97.95848737701289 H 0.0 **** 0.06
7439 H 6.701498352847082 71.44259534766525 97.35412074692928 H 0.0 **** 0.06
7440 H 5.552131809308804 70.71475488478185 96.20620710479338 H 0.0 **** 0.06
7441 C 70.00670711563964 106.9817684509996 44.51146997772871 C 0.0 **** -0.24
7442 H 69.97111153997253 107.9525483249223 45.00613589779273 H 0.0 **** 0.06
7443 H 69.80016698525108 107.10775211908407 43.44909377256875 H 0.0 **** 0.06
7444 H 69.25983593248873 106.32154595970866 44.9520226366837 H 0.0 **** 0.06
7445 H 70.99817856471608 106.54525902101972 44.640338003596774 H 0.0 **** 0.06
7446 C 70.1951984421307 33.34659684887521 46.47414828048228 C 0.0 **** -0.24
7447 H 69.90577379127791 32.33600836284501 46.189137503024284 H 0.0 **** 0.06
7448 H 71.17267902207632 33.57809107243844 46.049471719620755 H 0.0 **** 0.06
7449 H 70.24506436983117 33.417380532732125 47.56111197627649 H 0.0 **** 0.06
7450 H 69.4581774178942 34.05629874486334 46.09737482539171 H 0.0 **** 0.06
7451 C 105.39111506015286 40.46627067833643 60.790667989363975 C 0.0 **** -0.24
7452 H 105.35218225473278 40.36040018583134 59.706519180028586 H 0.0 **** 0.06
7453 H 106.23239159234961 39.89482368819563 61.182271197854085 H 0.0 **** 0.06
7454 H 104.46385397738365 40.092764274505896 61.22502821931818 H 0.0 **** 0.06
7455 H 105.51380603869498 41.518579644730465 61.04793780278191 H 0.0 **** 0.06
7456 C 57.28106062397168 95.43332346078734 66.16907643383419 C 0.0 **** -0.24
7457 H 58.36093971031863 95.56694238633364 66.1092594126041 H 0.0 **** 0.06
7458 H 57.0562212527301 94.55681033325263 66.77824969751273 H 0.0 **** 0.06
7459 H 56.876912488652636 95.2909359861527 65.16593678186737 H 0.0 **** 0.06
7460 H 56.83030005004835 96.31642657826134 66.62106062632901 H 0.0 **** 0.06
7461 C 109.47023761518867 80.46833819672895 49.69953702125571 C 0.0 **** -0.24
7462 H 110.52146280640055 80.53341524889657 49.98216328131255 H 0.0 **** 0.06
7463 H 109.28388947819143 79.50855986119691 49.21574782013616 H 0.0 **** 0.06
7464 H 109.23014801715516 81.27625987649915 49.008437532367935 H 0.0 **** 0.06
7465 H 108.84852994383233 80.5539987750023 50.589992929558036 H 0.0 **** 0.06
7466 C 3.8274332815285987 64.50005077022817 51.083530898370725 C 0.0 **** -0.24
7467 H 4.780462243968046 64.31557178157232 51.57974485353162 H 0.0 **** 0.06
7468 H 3.8762981791759756 65.44666849016613 50.54395405749452 H 0.0 **** 0.06
7469 H 3.033629155022254 64.54760873721176 51.82940437912319 H 0.0 **** 0.06
7470 H 3.6211561004440966 63.69208326468669 50.382950362004124 H 0.0 **** 0.06
7471 C 99.47081888617518 96.41704976040407 102.4657764343778 C 0.0 **** -0.24
7472 H 98.72317751343945 96.37218349764174 103.25738387097698 H 0.0 **** 0.06
7473 H 100.31861451536665 97.0150896286672 102.79959200807713 H 0.0 **** 0.06
7474 H 99.03156619305625 96.87201185083174 101.57758243816812 H 0.0 **** 0.06
7475 H 99.8091549831066 95.40795923157103 102.22783520658652 H 0.0 **** 0.06
7476 C 56.67956276581365 37.4669274394451 37.56540660468801 C 0.0 **** -0.24
7477 H 56.23741974221925 37.25523328508211 36.59168892689834 H 0.0 **** 0.06
7478 H 56.29502099423764 36.759563375531684 38.30019070541533 H 0.0 **** 0.06
7479 H 56.42176426166592 38.48202791022578 37.86764812843934 H 0.0 **** 0.06
7480 H 57.76370151452195 37.37101842862478 37.50013301211794 H 0.0 **** 0.06
7481 C 111.85038773665019 50.47945879159876 47.859891233289915 C 0.0 **** -0.24
7482 H 111.58865318591455 50.6408092118303 48.90536767999997 H 0.0 **** 0.06
7483 H 112.1259371679783 49.435757802645774 47.711922771760385 H 0.0 **** 0.06
7484 H 112.69181015009701 51.11984141121721 47.59389230368137 H 0.0 **** 0.06
7485 H 110.99492848958793 50.72356309544542 47.22955991859088 H 0.0 **** 0.06
7486 C 81.74648797680277 36.900924542222754 91.80735948759923 C 0.0 **** -0.24
7487 H 81.22686082825504 37.78254495339149 92.18398675845725 H 0.0 **** 0.06
7488 H 81.2804539901087 36.003837568660174 92.21673869330567 H 0.0 **** 0.06
7489 H 82.7920472288296 36.93854927385502 92.11077687718932 H 0.0 **** 0.06
7490 H 81.68304258270118 36.87980357523446 90.71976374123892 H 0.0 **** 0.06
7491 C 94.37359165576478 0.040587233824936675 109.31266772926048 C 0.0 **** -0.24
7492 H 94.96634453637034 -0.79496933853153 109.68538775993986 H 0.0 **** 0.06
7493 H 94.22562066150607 -0.06999107603340349 108.23886936217392 H 0.0 **** 0.06
7494 H 94.89667059130352 0.9755247400262022 109.51361113349972 H 0.0 **** 0.06
7495 H 93.40568010295826 0.05073511915264817 109.81417967625175 H 0.0 **** 0.06
7496 C 108.08796958696391 69.01127415839426 111.15967266800125 C 0.0 **** -0.24
7497 H 107.55853495914806 69.54326899489678 111.95048899898165 H 0.0 **** 0.06
7498 H 107.42963147389179 68.8892634162242 110.29949578002578 H 0.0 **** 0.06
7499 H 108.39561374081578 68.03145207390847 111.52436390594498 H 0.0 **** 0.06
7500 H 108.96911602714923 69.58245996078318 110.86580747925488 H 0.0 **** 0.06
7501 C 105.23840865908929 104.95493511934171 83.50173944043598 C 0.0 **** -0.24
7502 H 105.85273209058542 104.25939345945397 84.07263472641148 H 0.0 **** 0.06
7503 H 104.43261995892564 104.4090044239617 83.01136999386631 H 0.0 **** 0.06
7504 H 105.8525866389005 105.44965160423564 82.74932999565203 H 0.0 **** 0.06
7505 H 104.81488722453435 105.70161023465229 84.17420571477152 H 0.0 **** 0.06
7506 C 1.3722324928641036 52.69093579401783 37.13667608564066 C 0.0 **** -0.24
7507 H 2.1685062556707617 52.81204760969101 36.40141758755237 H 0.0 **** 0.06
7508 H 0.4680313471678854 53.184066246039805 36.777892458891245 H 0.0 **** 0.06
7509 H 1.6797669124072208 53.13749044328702 38.081668375148524 H 0.0 **** 0.06
7510 H 1.1734894079164881 51.62956231292705 37.28374565545613 H 0.0 **** 0.06
7511 C 110.35583112140213 113.05102422656388 102.02185343232193 C 0.0 **** -0.24
7512 H 109.63426026886157 112.25460462535365 102.20150931980658 H 0.0 **** 0.06
7513 H 109.82822077757919 113.96378485270168 101.7442739734162 H 0.0 **** 0.06
7514 H 111.02608632203402 112.7581837590193 101.21370716362546 H 0.0 **** 0.06
7515 H 110.93518065382275 113.22640279251507 102.92867451692126 H 0.0 **** 0.06
7516 C 111.00028396156725 19.04925672040082 49.360375089310004 C 0.0 **** -0.24
7517 H 111.55213894900979 18.50202211181616 50.12591309280442 H 0.0 **** 0.06
7518 H 110.92517822334742 18.43799149184906 48.46073852687888 H 0.0 **** 0.06
7519 H 111.52617791085005 19.97550573102677 49.12793517338767 H 0.0 **** 0.06
7520 H 110.0007105165513 19.280499208668914 49.72816278956974 H 0.0 **** 0.06
7521 C 59.624031033638424 85.75346392749321 1.8177144373740077 C 0.0 **** -0.24
7522 H 59.55799679488589 85.77381398466602 2.9053652544199053 H 0.0 **** 0.06
7523 H 60.038770585926734 86.69591471124721 1.460877559428269 H 0.0 **** 0.06
7524 H 58.6285101768599 85.61166449808701 1.39530326594965 H 0.0 **** 0.06
7525 H 60.27009046793547 84.93184102481112 1.5082908053104802 H 0.0 **** 0.06
7526 C 48.08940698712547 33.556517870463125 64.41122980473284 C 0.0 **** -0.24
7527 H 47.48612616217633 34.4584510575873 64.51834555555007 H 0.0 **** 0.06
7528 H 47.45997293436645 32.67958985809386 64.559499645648 H 0.0 **** 0.06
7529 H 48.88740378820492 33.562720123568084 65.15298012700987 H 0.0 **** 0.06
7530 H 48.52295254608683 33.52758066409541 63.41136037478279 H 0.0 **** 0.06
7531 C 45.5109886998377 109.32951869651055 44.64085351804536 C 0.0 **** -0.24
7532 H 45.730192179121616 109.88702276579218 45.55145167839501 H 0.0 **** 0.06
7533 H 46.30464114708883 109.49785387900127 43.91223696411396 H 0.0 **** 0.06
7534 H 44.560529282711286 109.66828310948253 44.22735552173776 H 0.0 **** 0.06
7535 H 45.44849468600563 108.26676945160568 44.87162704041884 H 0.0 **** 0.06
7536 C 116.74774230417174 79.87196147122475 15.617791697356267 C 0.0 **** -0.24
7537 H 115.87152053333082 79.68387944249974 16.237453271940865 H 0.0 **** 0.06
7538 H 117.30993610856797 80.71055074726212 16.029882920689914 H 0.0 **** 0.06
7539 H 116.43220468750243 80.11009902126315 14.602756034879064 H 0.0 **** 0.06
7540 H 117.37889060415839 78.9838269213383 15.603764401190205 H 0.0 **** 0.06
7541 C 71.47498577690527 39.20487627719396 29.70102968388042 C 0.0 **** -0.24
7542 H 72.12495035630752 38.78022765962393 30.466623315972356 H 0.0 **** 0.06
7543 H 71.14678724964762 40.196227176082886 30.011443946484434 H 0.0 **** 0.06
7544 H 70.60710023702308 38.55959255812397 29.56411514153976 H 0.0 **** 0.06
7545 H 72.02313406747538 39.280480667778335 28.762084331135497 H 0.0 **** 0.06
7546 C 22.93476725829896 35.47241322219486 69.21108966528445 C 0.0 **** -0.24
7547 H 22.166222165866287 36.210863284362915 68.98032359996779 H 0.0 **** 0.06
7548 H 23.59434169647625 35.355733359905315 68.34990126373535 H 0.0 **** 0.06
7549 H 22.463804198271987 34.51657810561068 69.4407589829525 H 0.0 **** 0.06
7550 H 23.515029578013923 35.80857176423066 70.07029105636161 H 0.0 **** 0.06
7551 C 59.01334004233703 73.79725791263968 3.3670430220062446 C 0.0 **** -0.24
7552 H 58.64079500551849 74.80947231879736 3.518736979478911 H 0.0 **** 0.06
7553 H 58.962838739496 73.24669695252692 4.3066239045274095 H 0.0 **** 0.06
7554 H 60.04685558420453 73.83747360071675 3.0236026830898144 H 0.0 **** 0.06
7555 H 58.40149831033248 73.29438622550214 2.617444605480827 H 0.0 **** 0.06
7556 C 54.25798697430355 91.02666992408331 96.88107913327661 C 0.0 **** -0.24
7557 H 53.46079378514105 90.6979530982673 97.54787613232006 H 0.0 **** 0.06
7558 H 54.87699685477344 91.76392865975947 97.39207255248209 H 0.0 **** 0.06
7559 H 53.82254279000409 91.47391515749314 95.9877051865046 H 0.0 **** 0.06
7560 H 54.8699424352244 90.17124956064276 96.5976970763729 H 0.0 **** 0.06
7561 C 18.23819375792357 11.041212545071161 50.83870733297333 C 0.0 **** -0.24
7562 H 17.972765853341286 12.010991527825269 51.257778480729904 H 0.0 **** 0.06
7563 H 17.34774317479122 10.57137281460544 50.41770553488092 H 0.0 **** 0.06
7564 H 18.648407125374717 10.405649544959076 51.623602001920645 H 0.0 **** 0.06
7565 H 18.98257378474119 11.176105033271142 50.05406579105404 H 0.0 **** 0.06
7566 C 84.71509228667935 39.236762567178516 70.01425818529333 C 0.0 **** -0.24
7567 H 85.0943124429634 39.87780696722581 69.21779841037198 H 0.0 **** 0.06
7568 H 84.16888728508658 38.40010090255379 69.57842297373753 H 0.0 **** 0.06
7569 H 84.047973688193 39.811654261872434 70.65572464409513 H 0.0 **** 0.06
7570 H 85.54989678625665 38.85853521141871 70.60353352647525 H 0.0 **** 0.06
7571 C 48.12210996142707 107.61539265027477 55.51879822403899 C 0.0 **** -0.24
7572 H 48.66738209182711 108.44035651924392 55.06039787600932 H 0.0 **** 0.06
7573 H 48.406549619320856 106.67943386947266 55.0378187895279 H 0.0 **** 0.06
7574 H 47.051519854313426 107.77696737837408 55.39736786566364 H 0.0 **** 0.06
7575 H 48.36482001517189 107.56659546990272 56.580819736422036 H 0.0 **** 0.06
7576 C 67.90066784346016 43.4320358231121 10.425049233357885 C 0.0 **** -0.24
7577 H 67.31563475084664 42.56209613924452 10.721972019854796 H 0.0 **** 0.06
7578 H 67.27009191120513 44.321598333168254 10.456649971530698 H 0.0 **** 0.06
7579 H 68.27650641720737 43.288414200035504 9.412007692733997 H 0.0 **** 0.06
7580 H 68.73918001005836 43.556603415539 11.109872712557149 H 0.0 **** 0.06
7581 C 85.55275263497242 21.438327269240546 98.25697893022812 C 0.0 **** -0.24
7582 H 86.37103369644228 21.11419369320123 97.61402987284467 H 0.0 **** 0.06
7583 H 85.94144168075667 22.090230430584057 99.03932735679845 H 0.0 **** 0.06
7584 H 85.08080894991758 20.56629789652233 98.7105006384239 H 0.0 **** 0.06
7585 H 84.81755027506154 21.980807183974207 97.66238410033611 H 0.0 **** 0.06
7586 C 47.75062407978214 6.692968018799519 101.34630023998818 C 0.0 **** -0.24
7587 H 46.77181761219725 7.004951356021621 100.98229577636349 H 0.0 **** 0.06
7588 H 47.73069038808253 5.62582821341951 101.57157863522357 H 0.0 **** 0.06
7589 H 47.997083391760576 7.251173420956775 102.24946716727027 H 0.0 **** 0.06
7590 H 48.50228158137221 6.888383257272011 100.58135654108864 H 0.0 **** 0.06
7591 C 102.93078267123397 38.381484193942754 93.66886139784896 C 0.0 **** -0.24
7592 H 103.48395726837674 38.2154386767952 94.59390668595975 H 0.0 **** 0.06
7593 H 102.09694752111946 37.681171047321016 93.61461716445817 H 0.0 **** 0.06
7594 H 103.59297931128566 38.22665019990359 92.81700166067375 H 0.0 **** 0.06
7595 H 102.54936649568296 39.401931221666246 93.65202482429103 H 0.0 **** 0.06
7596 C 114.72323381718705 14.775197561369879 5.251608435817332 C 0.0 **** -0.24
7597 H 114.7705050377738 13.86246242292998 4.6577541126875985 H 0.0 **** 0.06
7598 H 114.5685338836385 15.629301308947163 4.591952683620548 H 0.0 **** 0.06
7599 H 115.65657894293705 14.902085089384656 5.797630631665754 H 0.0 **** 0.06
7600 H 113.89526870123572 14.706382096178558 5.956977237679155 H 0.0 **** 0.06
7601 C 107.85680615464693 113.5911421153877 77.58778999538558 C 0.0 **** -0.24
7602 H 107.90705813756924 114.2309477380141 76.70620192540147 H 0.0 **** 0.06
7603 H 108.70635846326093 113.799797306828 78.23779140496208 H 0.0 **** 0.06
7604 H 107.88320145894792 112.54642022458 77.27882981233776 H 0.0 **** 0.06
7605 H 106.92975973964164 113.78768171435286 78.12565247912858 H 0.0 **** 0.06
7606 C 83.65012491179854 9.019102216185317 41.60162435143765 C 0.0 **** -0.24
7607 H 82.84930476536559 9.739016448787552 41.438905459237375 H 0.0 **** 0.06
7608 H 83.73960265957714 8.810187148294318 42.668897205236604 H 0.0 **** 0.06
7609 H 84.58991167125609 9.430175263092465 41.232319884856764 H 0.0 **** 0.06
7610 H 83.4237630471296 8.096105236460502 41.06805070790455 H 0.0 **** 0.06
7611 C 19.67045149515056 91.88557667292184 14.732836314976453 C 0.0 **** -0.24
7612 H 19.0871698843342 91.80211937766154 13.815980606332602 H 0.0 **** 0.06
7613 H 20.349181726844733 92.73626105989692 14.655354435680039 H 0.0 **** 0.06
7614 H 20.247516914826406 90.97234289364678 14.879606736361268 H 0.0 **** 0.06
7615 H 18.99935840149257 92.0318245433003 15.578422802590865 H 0.0 **** 0.06
7616 C 54.40834492823234 89.96176665387551 32.82914258327338 C 0.0 **** -0.24
7617 H 53.478494155310216 90.34668162420974 33.24745939113606 H 0.0 **** 0.06
7618 H 54.18479015150669 89.3193364234312 31.97766703872935 H 0.0 **** 0.06
7619 H 54.93810189999422 89.38745966904042 33.589411631195446 H 0.0 **** 0.06
7620 H 55.03287455564009 90.7940016278207 32.50305868452875 H 0.0 **** 0.06
7621 C 31.288963769792282 37.02651661141428 43.46688787404733 C 0.0 **** -0.24
7622 H 31.00594524455017 37.36915151105424 44.46269150149283 H 0.0 **** 0.06
7623 H 32.246719271956174 36.50634316916074 43.520759096764436 H 0.0 **** 0.06
7624 H 31.37703697127816 37.882512107235385 42.799453485609575 H 0.0 **** 0.06
7625 H 30.52741263725749 36.34543201145806 43.086994983141835 H 0.0 **** 0.06
7626 C 50.933818259649925 27.92101986575915 71.6201743735044 C 0.0 **** -0.24
7627 H 50.50285056757146 27.486454849676875 72.52223760399667 H 0.0 **** 0.06
7628 H 51.996861774267316 27.682708349688596 71.57479684973916 H 0.0 **** 0.06
7629 H 50.803676853959544 29.002713594953093 71.64029439877788 H 0.0 **** 0.06
7630 H 50.430939844784625 27.511296948263634 70.74390590708259 H 0.0 **** 0.06
7631 C 15.472922846565012 115.05125143309424 62.34615538283421 C 0.0 **** -0.24
7632 H 16.122133116325358 115.72000284239391 62.91053955424559 H 0.0 **** 0.06
7633 H 15.254555916360289 114.16554160678183 62.9432516788751 H 0.0 **** 0.06
7634 H 15.971153801144055 114.75425960410934 61.42320969416153 H 0.0 **** 0.06
7635 H 14.541670358861637 115.56658984327512 62.1060944993969 H 0.0 **** 0.06
7636 C 37.26198567746155 14.738335600691954 89.69800747789364 C 0.0 **** -0.24
7637 H 36.9375699305204 15.124596905705815 90.66384625604346 H 0.0 **** 0.06
7638 H 37.048805800931234 13.671289300852862 89.64301257919197 H 0.0 **** 0.06
7639 H 38.33401355933694 14.900957829559019 89.58377423674571 H 0.0 **** 0.06
7640 H 36.72915342086719 15.25798092016359 88.90188909921923 H 0.0 **** 0.06
7641 C 90.70096567924458 1.9801583138798176 10.257313384343377 C 0.0 **** -0.24
7642 H 90.58840317969421 2.9489085076922787 10.743300695055382 H 0.0 **** 0.06
7643 H 90.68379668425044 1.1915428474582441 11.010205071307439 H 0.0 **** 0.06
7644 H 91.64954236947071 1.9502301914027846 9.721163649402058 H 0.0 **** 0.06
7645 H 89.88179735297288 1.8294675370982727 9.553295214969353 H 0.0 **** 0.06
7646 C 18.29218598612417 28.729754796640293 28.253508305110813 C 0.0 **** -0.24
7647 H 17.534236245405914 28.205953354245707 28.83518016471848 H 0.0 **** 0.06
7648 H 18.27893565734979 29.78977565677593 28.510191501332457 H 0.0 **** 0.06
7649 H 18.081084820461122 28.61081723439156 27.190533164382657 H 0.0 **** 0.06
7650 H 19.273799822820347 28.313688030571655 28.47790221054541 H 0.0 **** 0.06
7651 C 67.17763712669213 42.552892487644385 70.85302703464023 C 0.0 **** -0.24
7652 H 67.86036959850526 43.32577092800551 71.20732254004653 H 0.0 **** 0.06
7653 H 67.12890452933954 41.74807445490893 71.5856749462923 H 0.0 **** 0.06
7654 H 67.53752592675232 42.159359734286454 69.90284076924337 H 0.0 **** 0.06
7655 H 66.18510883032124 42.98158288376362 70.71537866042209 H 0.0 **** 0.06
7656 C 97.68857543730368 1.4885095632487833 97.9607264520231 C 0.0 **** -0.24
7657 H 98.74213027870556 1.2264243408788342 97.86017031416736 H 0.0 **** 0.06
7658 H 97.14183331374286 1.1356525030887124 97.08544192960494 H 0.0 **** 0.06
7659 H 97.5892467262498 2.5712149798421606 98.03878898856718 H 0.0 **** 0.06
7660 H 97.28213600929897 1.0204048478496848 98.85683352531743 H 0.0 **** 0.06
7661 C 10.498915220812336 82.45618999765526 98.20059125678986 C 0.0 **** -0.24
7662 H 10.808029446646486 83.26601465473192 97.5398323160542 H 0.0 **** 0.06
7663 H 11.370987478360973 82.0636989043382 98.72544818651451 H 0.0 **** 0.06
7664 H 10.040402354369434 81.66179563231259 97.61129461174738 H 0.0 **** 0.06
7665 H 9.778275488404944 82.83414083263955 98.92552262179825 H 0.0 **** 0.06
7666 C 96.96497523676445 40.9320743861017 80.42632226187123 C 0.0 **** -0.24
7667 H 97.2659537329512 40.209927113583866 79.6672680903201 H 0.0 **** 0.06
7668 H 96.78596314797338 40.414382915227655 81.36912936125711 H 0.0 **** 0.06
7669 H 96.05027529378634 41.432836154068625 80.10766934386203 H 0.0 **** 0.06
7670 H 97.75570134943129 41.669781561310884 80.56091525219747 H 0.0 **** 0.06
7671 C 74.02444304388928 61.99166121218202 43.24438261865765 C 0.0 **** -0.24
7672 H 73.72750491466627 61.01375650220162 43.625942842480214 H 0.0 **** 0.06
7673 H 74.75349649997673 61.86242698845995 42.44489434594996 H 0.0 **** 0.06
7674 H 74.46730112981302 62.576160628052385 44.050630779112055 H 0.0 **** 0.06
7675 H 73.14715591589533 62.511423520437326 42.85815282569985 H 0.0 **** 0.06
7676 C 53.743297701676426 35.58877855969649 35.92587052060546 C 0.0 **** -0.24
7677 H 54.0957129764102 35.824185510946364 36.92955470520819 H 0.0 **** 0.06
7678 H 54.316092608195675 36.161234448269795 35.19633353633327 H 0.0 **** 0.06
7679 H 52.68751063394981 35.84569112453559 35.84215944940158 H 0.0 **** 0.06
7680 H 53.87431550807551 34.523147482885264 35.735705450222866 H 0.0 **** 0.06
7681 C 115.78649777673552 45.33263804430925 30.84955086332002 C 0.0 **** -0.24
7682 H 115.38119502948246 46.181360284347875 31.40026149042623 H 0.0 **** 0.06
7683 H 116.10632996758547 45.66092409564186 29.860447420720988 H 0.0 **** 0.06
7684 H 115.01934053419843 44.5657864967846 30.749035427430925 H 0.0 **** 0.06
7685 H 116.64036201378407 44.924043728038384 31.39070200643411 H 0.0 **** 0.06
7686 C 53.15640090259754 2.369336615034001 62.558785874964514 C 0.0 **** -0.24
7687 H 52.1746613655682 2.0950512509164696 62.17193962626351 H 0.0 **** 0.06
7688 H 53.07745680700265 3.3006061194856358 63.12131143990413 H 0.0 **** 0.06
7689 H 53.84909550782845 2.503337108633886 61.72789477480276 H 0.0 **** 0.06
7690 H 53.52240178924848 1.5787438467522463 63.21305212837629 H 0.0 **** 0.06
7691 C 45.75508927962886 99.77433020654033 86.74018583337536 C 0.0 **** -0.24
7692 H 44.96554016963154 99.41112604653279 86.08184478037975 H 0.0 **** 0.06
7693 H 45.74630971141573 100.86468916479953 86.75106164266421 H 0.0 **** 0.06
7694 H 46.720756832000916 99.42187568583694 86.37736773814817 H 0.0 **** 0.06
7695 H 45.587613566878986 99.39972996432286 87.74906511239845 H 0.0 **** 0.06
7696 C 59.51496006943399 49.49364614545965 71.76120198734515 C 0.0 **** -0.24
7697 H 59.80243460852575 48.557387932422415 72.23947168643951 H 0.0 **** 0.06
7698 H 58.63100439324497 49.32975148131936 71.1437491978582 H 0.0 **** 0.06
7699 H 60.33427389722812 49.84791744895139 71.13532205957927 H 0.0 **** 0.06
7700 H 59.29297154040858 50.23870598989052 72.52436436288758 H 0.0 **** 0.06
7701 C 2.4133443742051526 85.23017384410522 50.03917509164188 C 0.0 **** -0.24
7702 H 3.1685347898791036 85.51555714269318 50.77084012118857 H 0.0 **** 0.06
7703 H 1.4233035124293991 85.47709507011152 50.422958865514005 H 0.0 **** 0.06
7704 H 2.4730448664030718 84.15737383197128 49.854180539282225 H 0.0 **** 0.06
7705 H 2.587146959420039 85.76936738670287 49.10750025579139 H 0.0 **** 0.06
7706 C 9.224068166500956 88.84529199932376 111.43917408732457 C 0.0 **** -0.24
7707 H 9.477354159727582 87.89079743676768 110.97956533494346 H 0.0 **** 0.06
7708 H 9.809524404022625 88.97674703694827 112.34936063642348 H 0.0 **** 0.06
7709 H 8.16168081645047 88.8605299548093 111.68334393099795 H 0.0 **** 0.06
7710 H 9.447693090843245 89.65456151869745 110.74273973254626 H 0.0 **** 0.06
7711 C 39.84571542016755 42.86141396526148 116.64077186400498 C 0.0 **** -0.24
7712 H 38.77392544386639 42.69852494148432 116.53062043583425 H 0.0 **** 0.06
7713 H 40.09497475456921 42.93614862966979 117.69919544276777 H 0.0 **** 0.06
7714 H 40.12599375411302 43.7863779246706 116.1350132266267 H 0.0 **** 0.06
7715 H 40.38783292467298 42.026050132223304 116.19731402036437 H 0.0 **** 0.06
7716 C 92.78269300297364 63.56686761992944 104.93392249774695 C 0.0 **** -0.24
7717 H 93.37291517339685 63.01609712345373 104.20198494798979 H 0.0 **** 0.06
7718 H 91.91082205868281 64.00186453585025 104.44478372806896 H 0.0 **** 0.06
7719 H 93.39104927561806 64.36229824539345 105.36622658432316 H 0.0 **** 0.06
7720 H 92.45748661423323 62.88914621364847 105.7226768403774 H 0.0 **** 0.06
7721 C 75.85502044022897 31.71298494674653 53.29732496598052 C 0.0 **** -0.24
7722 H 75.71782711501251 30.81720878235876 52.692414257655514 H 0.0 **** 0.06
7723 H 74.97414007243495 32.349573983156915 53.20911956739593 H 0.0 **** 0.06
7724 H 76.73301285018874 32.25595917304179 52.94732598306018 H 0.0 **** 0.06
7725 H 75.99510172327959 31.429197848428487 54.34044005581063 H 0.0 **** 0.06
7726 C 41.41264531215697 63.00078526502966 69.60583532472589 C 0.0 **** -0.24
7727 H 42.10929822222121 63.56567107233235 68.98686708611899 H 0.0 **** 0.06
7728 H 40.62010569468876 62.590787728066175 68.97925254366007 H 0.0 **** 0.06
7729 H 40.97807966582974 63.65896737933889 70.35757391899608 H 0.0 **** 0.06
7730 H 41.944228635878346 62.18687368853034 70.0997635916244 H 0.0 **** 0.06
7731 C 106.26157981445871 108.0040018256382 70.95883862388592 C 0.0 **** -0.24
7732 H 106.88170746359933 108.1996037505331 71.83256423382008 H 0.0 **** 0.06
7733 H 105.36149749788703 107.47053322657791 71.26526491737334 H 0.0 **** 0.06
7734 H 106.81888851281465 107.3967062478078 70.24580773787025 H 0.0 **** 0.06
7735 H 105.98253566313295 108.94878658744848 70.49175178747157 H 0.0 **** 0.06
7736 C 108.46676485292807 72.73793170832624 7.659900209179568 C 0.0 **** -0.24
7737 H 108.84658282336203 72.29708629343332 8.581528978899854 H 0.0 **** 0.06
7738 H 107.95907645600806 73.67479115019239 7.888167183451856 H 0.0 **** 0.06
7739 H 107.7650638573651 72.04833020446262 7.1900082209844385 H 0.0 **** 0.06
7740 H 109.2978722614182 72.93026626271097 6.981335647305102 H 0.0 **** 0.06
7741 C 104.51440232839713 9.389878218936985 11.25702115437554 C 0.0 **** -0.24
7742 H 105.39701216502411 9.165308498300249 11.85618916201792 H 0.0 **** 0.06
7743 H 103.69370679077696 8.73809860732436 11.560587090290081 H 0.0 **** 0.06
7744 H 104.73873131695393 9.224191688071372 10.202955935410316 H 0.0 **** 0.06
7745 H 104.22678589749461 10.430579622402135 11.408930293966481 H 0.0 **** 0.06
7746 C 107.93026541091058 46.371570316862915 36.348836626858315 C 0.0 **** -0.24
7747 H 106.85490456341665 46.39046273900345 36.168725125472236 H 0.0 **** 0.06
7748 H 108.15368283668596 45.65919822848346 37.14289053920663 H 0.0 **** 0.06
7749 H 108.26627924063723 47.36442110947732 36.64514875908884 H 0.0 **** 0.06
7750 H 108.44499049034147 46.071491448266016 35.43592713114435 H 0.0 **** 0.06
7751 C 70.80352436455692 88.95373855780554 84.89582417252086 C 0.0 **** -0.24
7752 H 71.46404646952573 89.81094950590463 84.76485122349976 H 0.0 **** 0.06
7753 H 71.37881616608578 88.03334665516286 84.79119096670718 H 0.0 **** 0.06
7754 H 70.01910616600904 88.98145055076154 84.14006822590483 H 0.0 **** 0.06
7755 H 70.35467196188182 88.99020032675045 85.88792546016708 H 0.0 **** 0.06
7756 C 7.053863082588279 29.440876667819047 86.1583419643346 C 0.0 **** -0.24
7757 H 6.592729043095773 30.015128337846683 86.96313603644006 H 0.0 **** 0.06
7758 H 6.324259481267916 29.27752864262284 85.36542964236727 H 0.0 **** 0.06
7759 H 7.392234287665147 28.480722172884775 86.54568308186376 H 0.0 **** 0.06
7760 H 7.90540326697996 29.993965878963422 85.76072699533651 H 0.0 **** 0.06
7761 C 27.96174232029091 58.12644229027459 30.189362204425677 C 0.0 **** -0.24
7762 H 26.991648601461378 57.75589711104022 30.519803396778194 H 0.0 **** 0.06
7763 H 27.86441992907271 58.56578226782525 29.196339682235163 H 0.0 **** 0.06
7764 H 28.67353537091134 57.30167331213858 30.15363049600422 H 0.0 **** 0.06
7765 H 28.317920129920253 58.88316172067555 30.888045258677437 H 0.0 **** 0.06
7766 C 83.38815333348555 49.23828982147622 14.527573375011158 C 0.0 **** -0.24
7767 H 82.39599958897185 49.06057486736925 14.94352332120026 H 0.0 **** 0.06
7768 H 83.30967628372804 49.91976433933417 13.68104354928903 H 0.0 **** 0.06
7769 H 83.81685197288482 48.29178726195259 14.194692790624543 H 0.0 **** 0.06
7770 H 84.0283944666906 49.67785492006627 15.292054734574762 H 0.0 **** 0.06
7771 C 22.71998976200817 43.23809015193356 53.29992257734132 C 0.0 **** -0.24
7772 H 23.07818348869324 42.34921820514771 53.82013689361649 H 0.0 **** 0.06
7773 H 21.71218237480224 43.47621760540153 53.64079583663396 H 0.0 **** 0.06
7774 H 22.706829076782526 43.05026663431619 52.22701484617173 H 0.0 **** 0.06
7775 H 23.383701914958507 44.075743259689574 53.514441620171226 H 0.0 **** 0.06
7776 C 101.85498000914245 0.5479273569733607 7.439474737630221 C 0.0 **** -0.24
7777 H 102.74944444710871 -0.06786777918028974 7.530296821430596 H 0.0 **** 0.06
7778 H 101.9370385581174 1.4081521356078213 8.104288790285125 H 0.0 **** 0.06
7779 H 100.9789486524603 -0.04163545072739794 7.713196913877326 H 0.0 **** 0.06
7780 H 101.75374889773724 0.8914942423876511 6.410126882169521 H 0.0 **** 0.06
7781 C 33.053081447460784 22.139260386245326 11.158678566889893 C 0.0 **** -0.24
7782 H 33.264287804100945 21.295870263208258 11.814464215377477 H 0.0 **** 0.06
7783 H 31.978549234407296 22.32288834780968 11.137600150908494 H 0.0 **** 0.06
7784 H 33.40226356847188 21.912215645982883 10.15071697208802 H 0.0 **** 0.06
7785 H 33.567231450351926 23.02625663926375 11.529941864392956 H 0.0 **** 0.06
7786 C 54.84640908218415 48.06565573026468 0.9256992462031359 C 0.0 **** -0.24
7787 H 55.38483534288537 48.364501761459955 1.8248934170783926 H 0.0 **** 0.06
7788 H 53.808666870583295 48.3942370799812 0.9973405381517306 H 0.0 **** 0.06
7789 H 54.87827821869894 46.97995287116951 0.8285154537563191 H 0.0 **** 0.06
7790 H 55.313030084982245 48.52268468249952 0.05292186549948141 H 0.0 **** 0.06
7791 C 91.34529894521287 95.62185533925117 44.08878349434489 C 0.0 **** -0.24
7792 H 90.6826248502444 95.53297846630971 43.22887488504684 H 0.0 **** 0.06
7793 H 91.88908750407398 96.56490736516571 44.032909984040984 H 0.0 **** 0.06
7794 H 92.0534014610758 94.79386164393532 44.08919316960643 H 0.0 **** 0.06
7795 H 90.75548278012687 95.59562226509718 45.00543594992634 H 0.0 **** 0.06
7796 C 50.45858957277776 10.469192242327765 88.92532410416638 C 0.0 **** -0.24
7797 H 49.507769286891886 10.85883172740203 89.28729199090677 H 0.0 **** 0.06
7798 H 51.171381032832954 10.427316503449944 89.75029250083074 H 0.0 **** 0.06
7799 H 50.845193390898835 11.122825045311753 88.14399411107036 H 0.0 **** 0.06
7800 H 50.3109490395325 9.468067836697255 88.52146508498171 H 0.0 **** 0.06
7801 C 29.860418273384226 57.927596276519125 99.14444372831258 C 0.0 **** -0.24
7802 H 29.74776845034772 57.18487188252993 98.35459724821501 H 0.0 **** 0.06
7803 H 30.35592356895537 58.81244142199114 98.74278885832626 H 0.0 **** 0.06
7804 H 30.459291721310883 57.509772877020055 99.9532725893425 H 0.0 **** 0.06
7805 H 28.87619768836202 58.203611240792725 99.52494949061406 H 0.0 **** 0.06
7806 C 59.76527227064241 7.267556782908372 32.50931286105027 C 0.0 **** -0.24
7807 H 58.889229556468024 7.878966132232591 32.29456953928908 H 0.0 **** 0.06
7808 H 59.45830064066928 6.368676929799307 33.04420107935686 H 0.0 **** 0.06
7809 H 60.46286078556403 7.8365545991187275 33.1249976772044 H 0.0 **** 0.06
7810 H 60.2508471226314 6.986528756671959 31.575135019915855 H 0.0 **** 0.06
7811 C 15.8046237534457 12.091744981625524 94.11393000565147 C 0.0 **** -0.24
7812 H 16.013011950144463 12.278958971476982 95.16789600006214 H 0.0 **** 0.06
7813 H 14.778986343629107 11.737670891076476 94.00448378343279 H 0.0 **** 0.06
7814 H 16.492043871754632 11.334126192929872 93.73688047062734 H 0.0 **** 0.06
7815 H 15.93377933919022 13.013476008027173 93.54869502890867 H 0.0 **** 0.06
7816 C 45.10599271109824 74.97375711583675 23.76472196984556 C 0.0 **** -0.24
7817 H 45.37984603431032 74.12216700072614 23.141034819551546 H 0.0 **** 0.06
7818 H 45.59114277684777 75.87231167313641 23.385223603124537 H 0.0 **** 0.06
7819 H 45.42871577524663 74.79060036290204 24.789737778306986 H 0.0 **** 0.06
7820 H 44.02399844089446 75.10621790052963 23.74296096058464 H 0.0 **** 0.06
7821 C 35.66739716005229 89.56342298728194 110.1414630888365 C 0.0 **** -0.24
7822 H 35.525199037763414 88.74558330670484 109.4349647356161 H 0.0 **** 0.06
7823 H 35.611482332568244 89.17769957448905 111.15941149010568 H 0.0 **** 0.06
7824 H 34.88800625467519 90.31072896685322 109.99216955000233 H 0.0 **** 0.06
7825 H 36.64332510915815 90.01916696167845 109.97750281788795 H 0.0 **** 0.06
7826 C 24.929635779336323 27.447689035415593 84.70789930134043 C 0.0 **** -0.24
7827 H 24.014976573506317 27.947134233517517 85.02565853976557 H 0.0 **** 0.06
7828 H 25.112858950659586 26.583075880259898 85.34696378131446 H 0.0 **** 0.06
7829 H 25.76732231957945 28.140725122940097 84.78464039601533 H 0.0 **** 0.06
7830 H 24.824191665059345 27.119612011897686 83.67319159167903 H 0.0 **** 0.06
7831 C 8.033926919340274 47.81964847693391 19.19868902213885 C 0.0 **** -0.24
7832 H 8.341282033089243 47.167079380189875 20.015173135261165 H 0.0 **** 0.06
7833 H 8.912437540757637 48.13642603821742 18.63668366377388 H 0.0 **** 0.06
7834 H 7.526075545655601 48.69501359290331 19.60418734580324 H 0.0 **** 0.06
7835 H 7.354832339542895 47.27992840086631 18.537810953405454 H 0.0 **** 0.06
7836 C 19.228594242927418 40.50809243532345 55.027076584504904 C 0.0 **** -0.24
7837 H 18.581119055902125 40.21054527107708 54.20156668288494 H 0.0 **** 0.06
7838 H 20.225163176797246 40.7291903787758 54.6453685764812 H 0.0 **** 0.06
7839 H 19.28843491226565 39.69717809294022 55.752512969948434 H 0.0 **** 0.06
7840 H 18.81763969069966 41.39630237197841 55.50840756176524 H 0.0 **** 0.06
7841 C 39.05066010418375 47.467096140777926 32.53315073823774 C 0.0 **** -0.24
7842 H 37.97935403220788 47.63913053286427 32.63353694665648 H 0.0 **** 0.06
7843 H 39.294787548799036 46.47262258768802 32.90696636196611 H 0.0 **** 0.06
7844 H 39.59450934965838 48.216048333608285 33.10869271539832 H 0.0 **** 0.06
7845 H 39.33304280823671 47.54089462040861 31.483489510660092 H 0.0 **** 0.06
7846 C 72.50459134182074 19.003620972838434 11.987799738036149 C 0.0 **** -0.24
7847 H 72.43999678794196 17.92373524056407 12.119664409432136 H 0.0 **** 0.06
7848 H 72.90335305827469 19.456559800200125 12.89576146847092 H 0.0 **** 0.06
7849 H 71.51096680707604 19.405224072710098 11.788237174733222 H 0.0 **** 0.06
7850 H 73.16245709281526 19.228598539615234 11.149361539086524 H 0.0 **** 0.06
7851 C 28.099247038969168 39.385055965438845 4.522710165466975 C 0.0 **** -0.24
7852 H 28.205122617240363 38.36780779084243 4.899185207485999 H 0.0 **** 0.06
7853 H 29.0048833114962 39.67013016235629 3.987379795700008 H 0.0 **** 0.06
7854 H 27.939653675173446 40.066992286063574 5.3575291512843535 H 0.0 **** 0.06
7855 H 27.245808818708326 39.434177420527206 3.8455445114557563 H 0.0 **** 0.06
7856 C 37.86396353368491 23.179470886431375 61.07059266108346 C 0.0 **** -0.24
7857 H 38.51738001713062 22.309478624576684 61.020520444814245 H 0.0 **** 0.06
7858 H 37.78991171807996 23.518792427713947 62.10448253412938 H 0.0 **** 0.06
7859 H 36.87321248190801 22.911936545074127 60.70417670151428 H 0.0 **** 0.06
7860 H 38.27546402332706 23.978924938036755 60.45474892307829 H 0.0 **** 0.06
7861 C 43.84667749625078 14.292193267464825 34.27447614286535 C 0.0 **** -0.24
7862 H 43.77500421932572 13.332983770383407 33.76074167082783 H 0.0 **** 0.06
7863 H 44.004129990774516 15.085661477277853 33.54383540760472 H 0.0 **** 0.06
7864 H 44.68397141536465 14.267806580504924 34.972329408145185 H 0.0 **** 0.06
7865 H 42.922655517707454 14.47942923489498 34.821856325152964 H 0.0 **** 0.06
7866 C 28.286232267546723 28.828124029188757 42.62327033805022 C 0.0 **** -0.24
7867 H 28.309971793440354 29.634850223450343 41.890672736503774 H 0.0 **** 0.06
7868 H 27.666183599334715 28.01403857326656 42.246127709913964 H 0.0 **** 0.06
7869 H 27.868993456392502 29.19950817875747 43.559178743665 H 0.0 **** 0.06
7870 H 29.299558135687448 28.464205872454016 42.79570953773916 H 0.0 **** 0.06
7871 C 54.57632232596109 107.16431387547752 29.275834134716575 C 0.0 **** -0.24
7872 H 55.073036424305315 106.35837248677899 28.734852068762933 H 0.0 **** 0.06
7873 H 54.15802903926931 107.87558943652618 28.564033084310665 H 0.0 **** 0.06
7874 H 55.30012832364014 107.67215349345165 29.914791785286013 H 0.0 **** 0.06
7875 H 53.77722930215543 106.75029726370232 29.890344931689867 H 0.0 **** 0.06
7876 C 57.08447106756506 105.83957303458448 76.6761014584549 C 0.0 **** -0.24
7877 H 57.6088269410825 106.07546281018648 77.60193345020627 H 0.0 **** 0.06
7878 H 56.69334225891902 106.75734969211862 76.23612160411543 H 0.0 **** 0.06
7879 H 56.260373066551324 105.15832933892841 76.88937244261348 H 0.0 **** 0.06
7880 H 57.77477368189943 105.36632173649747 75.97797363269109 H 0.0 **** 0.06
7881 C 1.2527544437471079 13.506364833694562 89.06819040771177 C 0.0 **** -0.24
7882 H 2.0654156734620415 13.005687612125712 88.5416545358571 H 0.0 **** 0.06
7883 H 0.34519468503117423 13.457024666885417 88.46575630245016 H 0.0 **** 0.06
7884 H 1.5202755673192314 14.549140498841211 89.23928784454301 H 0.0 **** 0.06
7885 H 1.082360771856031 13.01343595146804 90.02506137634956 H 0.0 **** 0.06
7886 C 12.43064311265043 102.18884131038186 57.64930650167661 C 0.0 **** -0.24
7887 H 12.320853410491196 101.14413146153345 57.35567303862816 H 0.0 **** 0.06
7888 H 13.254949494562197 102.2819998892814 58.357512352257494 H 0.0 **** 0.06
7889 H 11.508428023062876 102.53211110994354 58.11704369275642 H 0.0 **** 0.06
7890 H 12.63851003471575 102.79382233862839 56.76671527815903 H 0.0 **** 0.06
7891 C 23.04238923709397 49.65077144814962 100.8015636802267 C 0.0 **** -0.24
7892 H 23.300282229747154 49.959616135254365 101.81509325002611 H 0.0 **** 0.06
7893 H 23.32671963794104 48.60918022645003 100.65546146522269 H 0.0 **** 0.06
7894 H 23.57315361704758 50.27752774475999 100.08539146331577 H 0.0 **** 0.06
7895 H 21.96797295215802 49.75926956442374 100.65160101359146 H 0.0 **** 0.06
7896 C 13.095604865281459 106.41442997956403 78.16612718595229 C 0.0 **** -0.24
7897 H 13.219430368991539 106.40230453150659 77.08353162525873 H 0.0 **** 0.06
7898 H 12.48114719007603 105.56674268493282 78.4709058508115 H 0.0 **** 0.06
7899 H 12.60984514972455 107.34247520447286 78.46633957963809 H 0.0 **** 0.06
7900 H 14.072852777346839 106.34438652036894 78.64472560651893 H 0.0 **** 0.06
7901 C 98.77137215737676 61.53962301173056 109.61558873079338 C 0.0 **** -0.24
7902 H 99.7504427144141 61.79175446557321 110.02289762653794 H 0.0 **** 0.06
7903 H 98.75940082947815 61.745133972539 108.54546730553318 H 0.0 **** 0.06
7904 H 98.0063177597294 62.13798414933452 110.1097948141445 H 0.0 **** 0.06
7905 H 98.57059306127906 60.48090378572801 109.78404170884869 H 0.0 **** 0.06
7906 C 84.66799061530898 6.4942787789051835 5.399860866495418 C 0.0 **** -0.24
7907 H 84.58034396912791 6.889045497766929 6.411819481365571 H 0.0 **** 0.06
7908 H 85.19963056528636 5.542337810683961 5.427254439240203 H 0.0 **** 0.06
7909 H 85.21951027375539 7.2007436732439345 4.7803721074334735 H 0.0 **** 0.06
7910 H 83.67335603416743 6.342789517422403 4.980625833050903 H 0.0 **** 0.06
7911 C 83.57492812613103 59.019670197538254 66.76499938079459 C 0.0 **** -0.24
7912 H 84.30787347199811 58.809816798899085 67.54342380453252 H 0.0 **** 0.06
7913 H 83.46020375120293 58.14293331141172 66.128188048955 H 0.0 **** 0.06
7914 H 83.91435774784682 59.86398389253609 66.16445136573626 H 0.0 **** 0.06
7915 H 82.61637837197605 59.26394971924699 67.22435864165811 H 0.0 **** 0.06
7916 C 83.0123173196472 56.20925062457844 40.065207657514236 C 0.0 **** -0.24
7917 H 83.0093406847268 55.79888021173827 41.07492109181297 H 0.0 **** 0.06
7918 H 82.06720691627933 56.71901898794771 39.87707863550301 H 0.0 **** 0.06
7919 H 83.13944416192658 55.400907588718965 39.344895720518906 H 0.0 **** 0.06
7920 H 83.83453742987138 56.918290319691174 39.964570620070134 H 0.0 **** 0.06
7921 C 62.86678631548897 14.08577033687017 91.35166231868232 C 0.0 **** -0.24
7922 H 61.78121760318191 14.010279039094144 91.41274904194916 H 0.0 **** 0.06
7923 H 63.273259247909 14.282182056254712 92.34383728468151 H 0.0 **** 0.06
7924 H 63.13751788092248 14.900390673734819 90.67931408974943 H 0.0 **** 0.06
7925 H 63.275320488238954 13.149654803336261 90.9699483548469 H 0.0 **** 0.06
7926 C 62.604927164445435 84.39605663068426 113.15901181073085 C 0.0 **** -0.24
7927 H 62.99633387975255 84.16390057762291 114.14934372530857 H 0.0 **** 0.06
7928 H 62.12936382315524 83.5098388387106 112.7388303041767 H 0.0 **** 0.06
7929 H 63.421512091119276 84.71372983154035 112.5110027570997 H 0.0 **** 0.06
7930 H 61.871081494514904 85.19908741403555 113.2381202716546 H 0.0 **** 0.06
7931 C 36.99395529045418 41.85648988290424 103.6545375952482 C 0.0 **** -0.24
7932 H 37.92554219174531 41.734323388409535 103.10075493328057 H 0.0 **** 0.06
7933 H 36.99186608905306 41.18282557965827 104.51231967422865 H 0.0 **** 0.06
7934 H 36.15147883794472 41.62141949892045 103.00514693677113 H 0.0 **** 0.06
7935 H 36.909894601684954 42.8864235090395 104.00047611122224 H 0.0 **** 0.06
7936 C 76.35158214049952 5.146452178022884 101.49734926435687 C 0.0 **** -0.24
7937 H 75.93667336321414 5.752582704711244 102.30228306240625 H 0.0 **** 0.06
7938 H 76.09433775781986 4.100660965805133 101.66014033248015 H 0.0 **** 0.06
7939 H 77.43593021374829 5.256553840687559 101.48286314871808 H 0.0 **** 0.06
7940 H 75.93996333750317 5.478948295372106 100.54390534224797 H 0.0 **** 0.06
7941 C 17.31393876861671 45.64888867387893 25.11895242914963 C 0.0 **** -0.24
7942 H 17.680729381350204 45.95497486503781 24.13896065132124 H 0.0 **** 0.06
7943 H 17.255463029832384 44.56136562204091 25.161108726284596 H 0.0 **** 0.06
7944 H 16.32327709218086 46.072194752796676 25.283850438616952 H 0.0 **** 0.06
7945 H 17.99603649442699 46.00702157827979 25.89017580281333 H 0.0 **** 0.06
7946 C 75.67601433192189 5.372047671265117 47.26181607154206 C 0.0 **** -0.24
7947 H 75.7253564841553 4.300406391346572 47.4542693698001 H 0.0 **** 0.06
7948 H 74.63354115813183 5.691597098883321 47.253280332658164 H 0.0 **** 0.06
7949 H 76.1301274876337 5.588207600464385 46.29423602152531 H 0.0 **** 0.06
7950 H 76.21492081553549 5.906476744175015 48.04382649513076 H 0.0 **** 0.06
7951 C 8.126429425575424 99.59279597154273 83.87321219143291 C 0.0 **** -0.24
7952 H 8.775128514500125 99.23172138202543 84.67155962440808 H 0.0 **** 0.06
7953 H 8.364925084052686 100.6336596731081 83.65595542013438 H 0.0 **** 0.06
7954 H 7.086178796050433 99.51534634457252 84.1884027866669 H 0.0 **** 0.06
7955 H 8.28029863045856 98.9892326301482 82.97861645285573 H 0.0 **** 0.06
7956 C 88.90166613379134 4.838875688740416 101.38076853517268 C 0.0 **** -0.24
7957 H 89.32604744514882 5.387022687271298 102.22223889524213 H 0.0 **** 0.06
7958 H 89.34664758720643 3.844857404827394 101.33187943587649 H 0.0 **** 0.06
7959 H 89.11115087170961 5.3767152884808525 100.4553152609127 H 0.0 **** 0.06
7960 H 87.8231466320369 4.749488761986967 101.51184348607882 H 0.0 **** 0.06
7961 C 24.12642581089039 105.67475649387168 2.858648923150483 C 0.0 **** -0.24
7962 H 24.2489603231798 104.70342710303248 2.38038286471739 H 0.0 **** 0.06
7963 H 24.69219530567296 105.6941346629765 3.7907988061745357 H 0.0 **** 0.06
7964 H 23.070944535244333 105.8446790792417 3.070289028046119 H 0.0 **** 0.06
7965 H 24.494737910906295 106.4561120042425 2.194628087538348 H 0.0 **** 0.06
7966 C 107.03418239990924 87.62869138915318 99.78665080256457 C 0.0 **** -0.24
7967 H 106.81855797564089 87.57646403484586 98.71953395417171 H 0.0 **** 0.06
7968 H 107.09984137011901 86.61872640694787 100.19325957113273 H 0.0 **** 0.06
7969 H 106.23757542217317 88.17336569314963 100.29159642514051 H 0.0 **** 0.06
7970 H 107.98227402275324 88.14482435049283 99.9408813496477 H 0.0 **** 0.06
7971 C 94.17385127057884 7.7676876550133755 77.13480094420086 C 0.0 **** -0.24
7972 H 94.65663520692769 8.378651262445501 77.89845674962908 H 0.0 **** 0.06
7973 H 94.51551410799092 6.73663089566756 77.22581429145666 H 0.0 **** 0.06
7974 H 94.4335100785508 8.15092117215616 76.14701987011512 H 0.0 **** 0.06
7975 H 93.09366868933608 7.806916082054244 77.267923324398 H 0.0 **** 0.06
7976 C 14.341828679436627 37.266745049286214 79.82332228053303 C 0.0 **** -0.24
7977 H 14.17411727236443 36.824814142390665 80.80556152318005 H 0.0 **** 0.06
7978 H 14.269966137692581 38.35197819935206 79.89599796210123 H 0.0 **** 0.06
7979 H 13.587695699030672 36.89769825443045 79.12676001272169 H 0.0 **** 0.06
7980 H 15.333432268238735 36.990599315351744 79.46502657806829 H 0.0 **** 0.06
7981 C 65.6968504885713 66.23045157253699 32.32826212811048 C 0.0 **** -0.24
7982 H 66.53779238767913 65.60839049760938 32.022805635942234 H 0.0 **** 0.06
7983 H 64.87815734884956 66.10805929743896 31.618740689710876 H 0.0 **** 0.06
7984 H 66.00666686667194 67.2750262593496 32.34988320707106 H 0.0 **** 0.06
7985 H 65.36365302689308 65.92978714195522 33.32226936972009 H 0.0 **** 0.06
7986 C 34.848481895817955 48.53771777388465 89.35228509370728 C 0.0 **** -0.24
7987 H 34.06135884364939 49.25147476991032 89.11179570982102 H 0.0 **** 0.06
7988 H 34.77185650249049 47.67439605004557 88.68955192754777 H 0.0 **** 0.06
7989 H 34.740156178356436 48.212123265172295 90.38644836420144 H 0.0 **** 0.06
7990 H 35.8210871350095 49.01134377711031 89.21950929778876 H 0.0 **** 0.06
7991 C 27.753080041308664 49.824235303952875 7.93559210021246 C 0.0 **** -0.24
7992 H 26.705823783718728 49.53942138349578 7.8293499812018155 H 0.0 **** 0.06
7993 H 27.850154738906866 50.90324787299154 7.812798032900815 H 0.0 **** 0.06
7994 H 28.346023280313574 49.31678886253829 7.1751051836235575 H 0.0 **** 0.06
7995 H 28.108167846824017 49.53705233069911 8.92467929712997 H 0.0 **** 0.06
7996 C 10.886196424028583 85.58640106813365 31.311670907963105 C 0.0 **** -0.24
7997 H 10.741421018875997 85.47505969033926 30.23677687469842 H 0.0 **** 0.06
7998 H 11.62065885397925 84.85721687925044 31.65580083711251 H 0.0 **** 0.06
7999 H 9.939667113328198 85.41921440526195 31.825219172399386 H 0.0 **** 0.06
8000 H 11.24519984746513 86.59273668722054 31.526349981424687 H 0.0 **** 0.06
8001 C 67.39505234290624 61.12110840800052 88.77402859717174 C 0.0 **** -0.24
8002 H 68.29772321619129 60.90003560082916 88.20426892326978 H 0.0 **** 0.06
8003 H 67.59230256962752 61.94634087094857 89.45939914308431 H 0.0 **** 0.06
8004 H 67.09908912191617 60.23975637151056 89.34199889472058 H 0.0 **** 0.06
8005 H 66.59347592047249 61.40080111812964 88.09072619984178 H 0.0 **** 0.06
8006 C 102.88713325903973 20.4796199300731 69.56373371350861 C 0.0 **** -0.24
8007 H 102.26823555843012 20.10915555730307 70.38155814988818 H 0.0 **** 0.06
8008 H 102.49585856063752 20.11037045803971 68.61595110044823 H 0.0 **** 0.06
8009 H 103.91035474285982 20.129027106899628 69.69702440038947 H 0.0 **** 0.06
8010 H 102.87296228002464 21.56917721599656 69.56389127388451 H 0.0 **** 0.06
8011 C 62.5788236268387 58.2200713430486 115.93429628301496 C 0.0 **** -0.24
8012 H 62.83523038512527 58.89514785369283 116.75010887282392 H 0.0 **** 0.06
8013 H 61.50018972544876 58.227724597370894 115.78152774266202 H 0.0 **** 0.06
8014 H 62.904276874233005 57.2102317231716 116.18353326757513 H 0.0 **** 0.06
8015 H 63.07767875748431 58.54710338198174 115.0212011875384 H 0.0 **** 0.06
8016 C 101.27258040831302 43.92960020146751 2.1413265403909776 C 0.0 **** -0.24
8017 H 100.84308838000777 42.99527217181179 1.779662741439921 H 0.0 **** 0.06
8018 H 100.8079601159431 44.767650345192465 1.6220319302474309 H 0.0 **** 0.06
8019 H 102.34567500477243 43.93338834262448 1.9516753654716439 H 0.0 **** 0.06
8020 H 101.09317909799745 44.020617885006686 3.2127470620924754 H 0.0 **** 0.06
8021 C 62.80440325716646 102.21426602265808 0.4228589116193149 C 0.0 **** -0.24
8022 H 62.839564591567274 101.43804323660817 1.1879529527198684 H 0.0 **** 0.06
8023 H 63.710264186164174 102.17011781568144 -0.18245251792599504 H 0.0 **** 0.06
8024 H 62.734337947799396 103.19201525260866 0.9000457623285172 H 0.0 **** 0.06
8025 H 61.93385697025746 102.05778968726204 -0.213976445470621 H 0.0 **** 0.06
8026 C 14.27776079165369 24.820625455308317 22.687362035030787 C 0.0 **** -0.24
8027 H 15.285314390964174 24.916773659108543 22.28285464476501 H 0.0 **** 0.06
8028 H 14.083188680414196 23.77658665011117 22.934676989021753 H 0.0 **** 0.06
8029 H 13.554167790143737 25.1595055111151 21.945602995980323 H 0.0 **** 0.06
8030 H 14.188151093294607 25.43060990448444 23.58636484450936 H 0.0 **** 0.06
8031 C 23.29427889564832 34.01287812767919 33.79597106809857 C 0.0 **** -0.24
8032 H 23.65704884098936 34.77880530371493 33.109731638257756 H 0.0 **** 0.06
8033 H 23.994232544865007 33.177168303059005 33.809122776508076 H 0.0 **** 0.06
8034 H 22.315766685243084 33.66470600248297 33.4657636030675 H 0.0 **** 0.06
8035 H 23.211001825735902 34.43348989685481 34.79823283556519 H 0.0 **** 0.06
8036 C 24.019265912389187 35.052817317193615 29.408017935805617 C 0.0 **** -0.24
8037 H 23.868376921977983 34.00341051492387 29.661061090867747 H 0.0 **** 0.06
8038 H 23.96816897486144 35.176115303585675 28.325676149223796 H 0.0 **** 0.06
8039 H 24.99732124242854 35.375157108637666 29.765492139051332 H 0.0 **** 0.06
8040 H 23.243659819800712 35.65596361511399 29.87921179763967 H 0.0 **** 0.06
8041 C 102.71033143417958 102.06428321601257 10.751846403430555 C 0.0 **** -0.24
8042 H 102.4741615225717 101.13319790571401 11.266580176006244 H 0.0 **** 0.06
8043 H 103.74578313925855 102.33737061418907 10.952402974897819 H 0.0 **** 0.06
8044 H 102.04919038223926 102.85465501711025 11.107740926097172 H 0.0 **** 0.06
8045 H 102.57109539605023 101.93104421285477 9.67864851632557 H 0.0 **** 0.06
8046 C 55.81718537663937 0.7761728382433688 33.228733769882865 C 0.0 **** -0.24
8047 H 56.238857306239055 1.7811982640560444 33.19398179274398 H 0.0 **** 0.06
8048 H 54.907446398131015 0.785472681903741 33.82881830756088 H 0.0 **** 0.06
8049 H 56.541707957613 0.09438035746174478 33.67610398932271 H 0.0 **** 0.06
8050 H 55.583300171044556 0.4455544422943376 32.216884899041446 H 0.0 **** 0.06
8051 C 101.12352920456374 111.19805180875515 15.488500180402355 C 0.0 **** -0.24
8052 H 101.08611450337105 110.96870090483024 14.423395355302091 H 0.0 **** 0.06
8053 H 101.70738522687674 112.1050342824482 15.643783388681129 H 0.0 **** 0.06
8054 H 101.58795752141225 110.36938091926777 16.022444770143238 H 0.0 **** 0.06
8055 H 100.11081198742653 111.34898702011627 15.8631218577639 H 0.0 **** 0.06
8056 C 57.77542571916112 39.57782573992637 52.17046968970428 C 0.0 **** -0.24
8057 H 57.403472777147556 38.648766335705545 52.6023569356949 H 0.0 **** 0.06
8058 H 57.31467856404814 40.42450659777347 52.68001614433629 H 0.0 **** 0.06
8059 H 57.52518456935334 39.61085970657331 51.11063667322108 H 0.0 **** 0.06
8060 H 58.857357216683795 39.626296099594356 52.28997187435337 H 0.0 **** 0.06
8061 C 8.559229294267766 26.479207419565867 8.3164953752309 C 0.0 **** -0.24
8062 H 7.80251572608654 25.72119786724086 8.517624769273056 H 0.0 **** 0.06
8063 H 8.075819492320079 27.38848347132035 7.958418533907945 H 0.0 **** 0.06
8064 H 9.249836752494332 26.11104540162787 7.558056841308741 H 0.0 **** 0.06
8065 H 9.108773367931178 26.69607477696406 9.2328805921005 H 0.0 **** 0.06
8066 C 15.876575441339128 45.80070526549536 92.59541727647243 C 0.0 **** -0.24
8067 H 16.526565774692898 44.93649144040147 92.4559825729792 H 0.0 **** 0.06
8068 H 15.811718236988298 46.35958233453008 91.66100193963541 H 0.0 **** 0.06
8069 H 16.287346926380565 46.441544817627964 93.37505140257946 H 0.0 **** 0.06
8070 H 14.882360450616318 45.46395230295985 92.88749244799834 H 0.0 **** 0.06
8071 C 57.831448339031226 41.505279818234726 39.04621716083486 C 0.0 **** -0.24
8072 H 57.45630795981745 42.34713534617606 39.62666770213323 H 0.0 **** 0.06
8073 H 58.898933919089956 41.63510794242603 38.86530497690018 H 0.0 **** 0.06
8074 H 57.30420941806892 41.457223281636914 38.094053527140005 H 0.0 **** 0.06
8075 H 57.66642187795853 40.58126987012227 39.59976283176891 H 0.0 **** 0.06
8076 C 48.534479655733776 116.3551566973218 43.32283260030285 C 0.0 **** -0.24
8077 H 48.14183840218095 116.57881108879224 44.31499264364204 H 0.0 **** 0.06
8078 H 49.502907546443936 115.86462070709425 43.41834070934131 H 0.0 **** 0.06
8079 H 48.65081447535627 117.28316592426245 42.76184407319333 H 0.0 **** 0.06
8080 H 47.842302292683 115.69675522060302 42.798041257648485 H 0.0 **** 0.06
8081 C 65.06081814793083 112.84995843199333 36.70463806390205 C 0.0 **** -0.24
8082 H 66.14550465990288 112.74055889377308 36.71191157504285 H 0.0 **** 0.06
8083 H 64.63165583745678 112.27184690528608 37.522184186252645 H 0.0 **** 0.06
8084 H 64.66557993013049 112.48714167070045 35.75552229270596 H 0.0 **** 0.06
8085 H 64.80116590926337 113.90199054038823 36.82729281871238 H 0.0 **** 0.06
8086 C 108.64895831212596 0.9155025186437342 59.09054812108326 C 0.0 **** -0.24
8087 H 107.80194876037973 0.23020682618050614 59.09876648815117 H 0.0 **** 0.06
8088 H 109.57074870132837 0.3529865947566293 58.93802483279052 H 0.0 **** 0.06
8089 H 108.69864205064218 1.4424007945341941 60.04302103481376 H 0.0 **** 0.06
8090 H 108.5253298685524 1.6368271106742043 58.28274318891238 H 0.0 **** 0.06
8091 C 53.056212676721344 5.957048817785505 91.45665682622996 C 0.0 **** -0.24
8092 H 52.01138756532623 6.242103661415683 91.33654794292204 H 0.0 **** 0.06
8093 H 53.38857779972767 6.210378193402221 92.46340437274148 H 0.0 **** 0.06
8094 H 53.66412586438949 6.491160029695948 90.72654401099203 H 0.0 **** 0.06
8095 H 53.159073888915685 4.883468905665211 91.29913952346953 H 0.0 **** 0.06
8096 C 79.56405226834895 34.50542203251422 83.01628110063476 C 0.0 **** -0.24
8097 H 79.3073140340295 34.44305836150632 81.95801964390259 H 0.0 **** 0.06
8098 H 79.00235460400788 33.753400456281966 83.57050240463272 H 0.0 **** 0.06
8099 H 79.31358579400705 35.497145560136275 83.39216528824699 H 0.0 **** 0.06
8100 H 80.63195998768217 34.32724613639995 83.14155442036386 H 0.0 **** 0.06
8101 C 2.400806762361526 69.00413281552807 82.62681360655012 C 0.0 **** -0.24
8102 H 2.441951781938144 69.53036226009368 81.67307851167834 H 0.0 **** 0.06
8103 H 2.7752318656014268 69.65521221189567 83.41651697196062 H 0.0 **** 0.06
8104 H 3.0162244619752414 68.1059305004371 82.57192603400313 H 0.0 **** 0.06
8105 H 1.3696318524622484 68.72509430751626 82.84257681091174 H 0.0 **** 0.06
8106 C 10.201372624227552 88.97087979569173 45.595100460186885 C 0.0 **** -0.24
8107 H 9.796949031677816 87.96155322125585 45.51741260630822 H 0.0 **** 0.06
8108 H 11.105583709665812 88.95399398834917 46.20434606215125 H 0.0 **** 0.06
8109 H 9.46169420844824 89.62345253847673 46.05860084290901 H 0.0 **** 0.06
8110 H 10.440936900263164 89.34349975618787 44.59911838474109 H 0.0 **** 0.06
8111 C 99.34670187133355 95.09060168883599 16.758869405458366 C 0.0 **** -0.24
8112 H 100.08167178730034 95.30252382419678 17.535134290571133 H 0.0 **** 0.06
8113 H 99.07403308445853 96.01778431242556 16.25333684848094 H 0.0 **** 0.06
8114 H 98.45840327458143 94.6483467313121 17.210504381866613 H 0.0 **** 0.06
8115 H 99.77173297412895 94.3936575313219 16.03626273941544 H 0.0 **** 0.06
8116 C 34.29233459384852 24.98829858973255 61.74583779235656 C 0.0 **** -0.24
8117 H 35.13632224670572 24.31772470099031 61.914954943900646 H 0.0 **** 0.06
8118 H 34.63991960717303 25.885612554250088 61.23365395280698 H 0.0 **** 0.06
8119 H 33.84955459878681 25.26307558024888 62.70317495539894 H 0.0 **** 0.06
8120 H 33.54633623149344 24.484300209938795 61.1317563531097 H 0.0 **** 0.06
8121 C 107.63430558133888 57.160620425486854 40.161003426283855 C 0.0 **** -0.24
8122 H 106.60552169633976 57.464062111463534 40.355378927069125 H 0.0 **** 0.06
8123 H 107.68564299074072 56.074643018083975 40.088951692215005 H 0.0 **** 0.06
8124 H 108.27320315492716 57.50134344822561 40.976095881015624 H 0.0 **** 0.06
8125 H 107.97364624226364 57.60430156656213 39.22452652965262 H 0.0 **** 0.06
8126 C 5.449763210700802 11.026185219913472 49.782622499219556 C 0.0 **** -0.24
8127 H 5.790354287045668 10.964974101865721 48.74838028451163 H 0.0 **** 0.06
8128 H 6.24895989988479 10.701343325783242 50.44875488350801 H 0.0 **** 0.06
8129 H 4.579779756590565 10.382929833495751 49.91672430170799 H 0.0 **** 0.06
8130 H 5.179346537782834 12.056750428473038 50.01362285684672 H 0.0 **** 0.06
8131 C 74.38606046077359 26.66302491279947 29.434094471479682 C 0.0 **** -0.24
8132 H 73.33103032821165 26.876166081958047 29.26381178736804 H 0.0 **** 0.06
8133 H 74.79150252173014 27.381501524984216 30.147774486871725 H 0.0 **** 0.06
8134 H 74.92926718559082 26.74091666112048 28.491858118896687 H 0.0 **** 0.06
8135 H 74.4934129150028 25.654516011139094 29.832697251304694 H 0.0 **** 0.06
8136 C 76.14022700574861 4.281648925478805 21.800191000440474 C 0.0 **** -0.24
8137 H 76.06326439154384 3.2282586651132874 21.533814221666614 H 0.0 **** 0.06
8138 H 77.13236393052892 4.48273662675993 22.206178821648443 H 0.0 **** 0.06
8139 H 75.38478290250896 4.5233338157619585 22.5483170770169 H 0.0 **** 0.06
8140 H 75.98029102302917 4.8939241724002045 20.911995334358508 H 0.0 **** 0.06
8141 C 90.21492998439413 68.79658533650976 82.3561117248951 C 0.0 **** -0.24
8142 H 90.32573685479161 69.84166122149045 82.64383406963219 H 0.0 **** 0.06
8143 H 90.70981083748887 68.62846257729402 81.39872635812262 H 0.0 **** 0.06
8144 H 89.15541872601167 68.55557849720506 82.26519632931641 H 0.0 **** 0.06
8145 H 90.66795201457143 68.16090415315321 83.11615407479951 H 0.0 **** 0.06
8146 C 115.88979132461147 88.9250812205567 96.98230579308307 C 0.0 **** -0.24
8147 H 115.42026553248337 88.14287280650899 97.57859303836887 H 0.0 **** 0.06
8148 H 116.92970606930228 88.66026013341548 96.78907762078916 H 0.0 **** 0.06
8149 H 115.84998930010734 89.8695779113213 97.52518034658519 H 0.0 **** 0.06
8150 H 115.35871430161161 89.02840916141815 96.03531023879634 H 0.0 **** 0.06
8151 C 24.713935391755783 74.3757110183748 29.78702438832113 C 0.0 **** -0.24
8152 H 24.828592556076984 75.07032806534127 30.61919195576263 H 0.0 **** 0.06
8153 H 23.698407603209873 73.97959859213535 29.781259890350498 H 0.0 **** 0.06
8154 H 25.423129277684062 73.55521937400073 29.897149180416477 H 0.0 **** 0.06
8155 H 24.90603181878923 74.89846952421735 28.850018264655205 H 0.0 **** 0.06
8156 C 89.05286593655316 79.28588152878689 60.78776736664117 C 0.0 **** -0.24
8157 H 89.23530105948478 80.0842946193822 61.507595105854854 H 0.0 **** 0.06
8158 H 88.93519577866044 78.3399137972495 61.31623850414113 H 0.0 **** 0.06
8159 H 89.89538823131673 79.21778268127667 60.1007938612913 H 0.0 **** 0.06
8160 H 88.14369896727962 79.50471262690616 60.227050519563 H 0.0 **** 0.06
8161 C 72.05432497833092 21.73471538914893 58.69066297657371 C 0.0 **** -0.24
8162 H 71.66584564476969 22.56434529547471 58.10026313567595 H 0.0 **** 0.06
8163 H 72.96381581062647 22.04810475737881 59.20341682274671 H 0.0 **** 0.06
8164 H 72.27906502168543 20.894982683076023 58.03217992616553 H 0.0 **** 0.06
8165 H 71.30907590133006 21.430401833170606 59.42549086849912 H 0.0 **** 0.06
8166 C 84.67421580683123 16.757490233825294 92.83917587734402 C 0.0 **** -0.24
8167 H 84.09252286358489 17.222427929882173 93.63608949315076 H 0.0 **** 0.06
8168 H 85.58958022146766 17.327718713120703 92.67952168664937 H 0.0 **** 0.06
8169 H 84.08725386807131 16.746529500378614 91.9210154967285 H 0.0 **** 0.06
8170 H 84.92603382478728 15.735799181891494 93.12166124893639 H 0.0 **** 0.06
8171 C 66.60113081125417 48.69773497160432 45.07188034415587 C 0.0 **** -0.24
8172 H 66.06516510455364 48.34164633671466 45.95142544522534 H 0.0 **** 0.06
8173 H 66.34047284481014 48.07841870629386 44.21258594953541 H 0.0 **** 0.06
8174 H 67.67472426764516 48.637167438529445 45.251236551739055 H 0.0 **** 0.06
8175 H 66.32363468880553 49.732576302954044 44.871607328345306 H 0.0 **** 0.06
8176 C 92.50963966487043 50.76159817904488 97.60573638696886 C 0.0 **** -0.24
8177 H 91.65160186030715 51.241281083957574 97.13470092381166 H 0.0 **** 0.06
8178 H 93.27268414536377 50.56442571299044 96.852210573304 H 0.0 **** 0.06
8179 H 92.19530464378997 49.82227861024603 98.06051897118547 H 0.0 **** 0.06
8180 H 92.91701974328456 51.419173964545394 98.37241390097958 H 0.0 **** 0.06
8181 C 72.62108616233763 25.104444968007783 99.4717715104909 C 0.0 **** -0.24
8182 H 71.59140131546914 24.946517100758392 99.1491092414858 H 0.0 **** 0.06
8183 H 73.07969242153624 25.878149298900375 98.85565228654815 H 0.0 **** 0.06
8184 H 73.18062288634019 24.176004547269123 99.36625897381913 H 0.0 **** 0.06
8185 H 72.62964361631006 25.418464609025825 100.51555951795228 H 0.0 **** 0.06
8186 C 75.69205279281891 20.0506314288578 27.81567894054021 C 0.0 **** -0.24
8187 H 75.26978441254309 20.502142568432646 28.714021934300177 H 0.0 **** 0.06
8188 H 76.54825862264138 19.434343424389056 28.087137132427586 H 0.0 **** 0.06
8189 H 76.01185293586514 20.83581099297251 27.130899514279264 H 0.0 **** 0.06
8190 H 74.93616763964482 19.43130846793622 27.331128877086655 H 0.0 **** 0.06
8191 C 32.35163079654819 41.73790012110695 112.0569590448174 C 0.0 **** -0.24
8192 H 32.19478152758873 41.60317099816845 110.98701684904185 H 0.0 **** 0.06
8193 H 31.389939640908494 41.8914774998465 112.54832874103751 H 0.0 **** 0.06
8194 H 32.98763755169796 42.60656658261874 112.2244878368132 H 0.0 **** 0.06
8195 H 32.83193908505123 40.85017104593905 112.46795780124877 H 0.0 **** 0.06
8196 C 20.927376290746224 102.11436355029858 74.64780592481037 C 0.0 **** -0.24
8197 H 19.88827784730057 102.34954193097471 74.4174507227711 H 0.0 **** 0.06
8198 H 21.137930840943824 101.08309176179745 74.36327247122068 H 0.0 **** 0.06
8199 H 21.099791758121683 102.23905738411895 75.71703571507692 H 0.0 **** 0.06
8200 H 21.582678608600332 102.78569046650694 74.09290593022914 H 0.0 **** 0.06
8201 C 0.5866596163324864 3.0016058336273 64.39281870536323 C 0.0 **** -0.24
8202 H 1.6214512931516936 3.319227449671615 64.26478488953231 H 0.0 **** 0.06
8203 H 0.0036936548619497245 3.820635959855471 64.81494469220283 H 0.0 **** 0.06
8204 H 0.5504474527092622 2.14519849614703 65.0678470385651 H 0.0 **** 0.06
8205 H 0.1707613258443086 2.7184994777448335 63.42587280788561 H 0.0 **** 0.06
8206 C 22.785190806958326 61.59495605808797 18.626454783166338 C 0.0 **** -0.24
8207 H 22.12171758411823 61.55621694225181 17.76279657544862 H 0.0 **** 0.06
8208 H 23.685391606524163 62.15379711385464 18.368016708109906 H 0.0 **** 0.06
8209 H 23.058051603466552 60.58133156524775 18.91954064124215 H 0.0 **** 0.06
8210 H 22.275298559314734 62.08790686668863 19.453572854571007 H 0.0 **** 0.06
8211 C 9.986170846954664 79.20964144467476 57.06986350695171 C 0.0 **** -0.24
8212 H 10.497876342591837 78.28197359921188 56.81264599841003 H 0.0 **** 0.06
8213 H 10.701483205976757 79.91263637600846 57.49586265845782 H 0.0 **** 0.06
8214 H 9.20196606354449 79.00222245382969 57.797862255709965 H 0.0 **** 0.06
8215 H 9.542998463141757 79.64022217176654 56.17182316757631 H 0.0 **** 0.06
8216 C 56.02199537812036 111.13011236227537 81.65913876947408 C 0.0 **** -0.24
8217 H 57.020902126738555 110.83778310423375 81.98448771595042 H 0.0 **** 0.06
8218 H 55.49092625551338 111.594709618327 82.49053819240117 H 0.0 **** 0.06
8219 H 55.47530558526238 110.24672581081748 81.32793568252228 H 0.0 **** 0.06
8220 H 56.100803333470346 111.83856350714909 80.83529159106527 H 0.0 **** 0.06
8221 C 13.763904522127064 75.9654299335493 30.071919799241158 C 0.0 **** -0.24
8222 H 14.02322642595442 75.40112506655518 30.96753585309753 H 0.0 **** 0.06
8223 H 13.576884872176407 77.00542750747519 30.3401709629878 H 0.0 **** 0.06
8224 H 12.867646339735956 75.53886670101306 29.621143731039695 H 0.0 **** 0.06
8225 H 14.587590477313285 75.9169655490515 29.360047208796118 H 0.0 **** 0.06
8226 C 6.751236094179717 10.971839457758144 23.244015964826616 C 0.0 **** -0.24
8227 H 5.768769520885002 10.67238794612813 22.880425354110145 H 0.0 **** 0.06
8228 H 6.645590393034752 11.819182792763801 23.920895701696935 H 0.0 **** 0.06
8229 H 7.378973028253654 11.256363969702392 22.39935737729101 H 0.0 **** 0.06
8230 H 7.21293611310935 10.138137788516477 23.773774994057874 H 0.0 **** 0.06
8231 C 0.832407099650851 53.5387478122416 95.91022721158103 C 0.0 **** -0.24
8232 H 0.35772327892132694 52.63373238550708 96.28973785781255 H 0.0 **** 0.06
8233 H 0.990410626593075 54.237430585543464 96.73196028773913 H 0.0 **** 0.06
8234 H 0.19022712757896443 53.99912211249131 95.15940076618352 H 0.0 **** 0.06
8235 H 1.7924338530823292 53.28407456503012 95.46030034644119 H 0.0 **** 0.06
8236 C 0.7963675176955576 68.40119638538593 93.71637178696594 C 0.0 **** -0.24
8237 H 0.5122012246987708 68.22854416232562 94.75415050164992 H 0.0 **** 0.06
8238 H 0.10189332589064293 69.10889473429987 93.26229285136753 H 0.0 **** 0.06
8239 H 0.7644355345259157 67.45887951039339 93.16965594865871 H 0.0 **** 0.06
8240 H 1.8062362734374346 68.8088841703736 93.67881258255395 H 0.0 **** 0.06
8241 C 16.492289538745013 114.36307137622292 51.19618822702739 C 0.0 **** -0.24
8242 H 17.464207822125573 114.64390839559988 51.601620552769646 H 0.0 **** 0.06
8243 H 16.23765812918367 113.35581010992112 51.52902853921597 H 0.0 **** 0.06
8244 H 16.53408700899007 114.38558022386438 50.10745673635412 H 0.0 **** 0.06
8245 H 15.735633129428237 115.06496248291602 51.54655790089927 H 0.0 **** 0.06
8246 C 112.83513876877467 62.190373342126584 86.96498616888698 C 0.0 **** -0.24
8247 H 112.76596826538724 63.265367092452074 87.13166804533932 H 0.0 **** 0.06
8248 H 113.35337999463536 62.00225963360064 86.02406890447983 H 0.0 **** 0.06
8249 H 111.83357140498309 61.76379447873229 86.92067821891388 H 0.0 **** 0.06
8250 H 113.39100659893879 61.7316060699329 87.78299750098998 H 0.0 **** 0.06
8251 C 4.449120002352744 15.799289068992238 82.00162829180107 C 0.0 **** -0.24
8252 H 3.3742751583893096 15.649171435438458 81.90360694704435 H 0.0 **** 0.06
8253 H 4.645746135761279 16.83171706960213 82.29609176462907 H 0.0 **** 0.06
8254 H 4.9325777757574745 15.595793788962304 81.04658213144148 H 0.0 **** 0.06
8255 H 4.84300683419187 15.123338916714069 82.7600631754986 H 0.0 **** 0.06
8256 C 98.24415969398774 108.05215489891688 70.92194369606392 C 0.0 **** -0.24
8257 H 97.82786971092196 107.98591212858372 69.91622824356148 H 0.0 **** 0.06
8258 H 97.94425030661273 107.1748346282397 71.49597115861025 H 0.0 **** 0.06
8259 H 97.8709461335605 108.95209231185994 71.41074964594094 H 0.0 **** 0.06
8260 H 99.33094597996353 108.09477065670723 70.86280544031484 H 0.0 **** 0.06
8261 C 40.800769302520905 66.99284182072921 51.21567285256674 C 0.0 **** -0.24
8262 H 39.94525016910626 67.26459572835293 50.597250830392994 H 0.0 **** 0.06
8263 H 40.70671669379334 67.46521576527408 52.193368058212286 H 0.0 **** 0.06
8264 H 41.7187547435409 67.33181980340851 50.73383914760993 H 0.0 **** 0.06
8265 H 40.83188692578045 65.90950803235202 51.335278902745216 H 0.0 **** 0.06
8266 C 57.858856601594 11.760058871322599 41.47534374369644 C 0.0 **** -0.24
8267 H 58.541004813145065 11.919496626627335 42.31052539756004 H 0.0 **** 0.06
8268 H 58.15088892864685 12.398343551370083 40.640631919327205 H 0.0 **** 0.06
8269 H 56.84339187780796 12.00787509464924 41.78497013089586 H 0.0 **** 0.06
8270 H 57.90057457986839 10.715359838865822 41.16669908668459 H 0.0 **** 0.06
8271 C 107.66816209000791 98.06895667778232 103.94035218679215 C 0.0 **** -0.24
8272 H 108.71171041184914 98.34613707193321 104.0893383925565 H 0.0 **** 0.06
8273 H 107.51567114267294 97.03900181331431 104.26677154739122 H 0.0 **** 0.06
8274 H 107.41599678774026 98.15668116871078 102.88403406208707 H 0.0 **** 0.06
8275 H 107.02939630742998 98.73329778692585 104.52284009526832 H 0.0 **** 0.06
8276 C 78.07805783447111 39.5837572343314 31.468261079933768 C 0.0 **** -0.24
8277 H 77.21594956210973 40.15189439667578 31.120975360980367 H 0.0 **** 0.06
8278 H 78.56370637406829 39.104569136860285 30.617715798968078 H 0.0 **** 0.06
8279 H 77.74953716601831 38.8217851942715 32.17553951491479 H 0.0 **** 0.06
8280 H 78.78264753164555 40.25547611334847 31.95843050047165 H 0.0 **** 0.06
8281 C 93.83663744190045 66.70646714736034 73.75623075909522 C 0.0 **** -0.24
8282 H 94.80586403679578 67.17681446786005 73.58684586696643 H 0.0 **** 0.06
8283 H 93.96863097414052 65.62753352406693 73.84897247798841 H 0.0 **** 0.06
8284 H 93.17658171308128 66.92047926941936 72.9155624432392 H 0.0 **** 0.06
8285 H 93.39822686120206 67.099198572995 74.673396026716 H 0.0 **** 0.06
8286 C 76.51017004658411 49.0006264821256 15.315174354797048 C 0.0 **** -0.24
8287 H 77.58523310501411 49.10956770271366 15.173085721843112 H 0.0 **** 0.06
8288 H 76.14784591191909 48.16165841316251 14.720901035654144 H 0.0 **** 0.06
8289 H 76.0071490343881 49.91458038929437 14.997942368772513 H 0.0 **** 0.06
8290 H 76.29962638957875 48.81705124275402 16.36920923012304 H 0.0 **** 0.06
8291 C 10.67184192886603 16.81301081651877 38.30181875043391 C 0.0 **** -0.24
8292 H 10.875009122084151 15.773971249929907 38.559998538779666 H 0.0 **** 0.06
8293 H 10.04196233885527 16.849042726466934 37.41236305661846 H 0.0 **** 0.06
8294 H 11.612233797576579 17.327956207147462 38.103162279191565 H 0.0 **** 0.06
8295 H 10.158948230801158 17.299818428102107 39.130406272537925 H 0.0 **** 0.06
8296 C 103.64057744780979 113.86797738968275 96.67863066456849 C 0.0 **** -0.24
8297 H 103.86968908870793 113.21925561499175 97.52381872382298 H 0.0 **** 0.06
8298 H 104.56536078553378 114.29219524615593 96.28532028222261 H 0.0 **** 0.06
8299 H 102.98136171751418 114.67197818869359 97.00582983615172 H 0.0 **** 0.06
8300 H 103.14638306530426 113.2878115048768 95.898406011709 H 0.0 **** 0.06
8301 C 112.50762071971877 100.55690431365664 95.81907626917481 C 0.0 **** -0.24
8302 H 111.67302838988113 101.23386478933824 96.00413349963719 H 0.0 **** 0.06
8303 H 113.38713154344589 101.1348647259579 95.53554067997658 H 0.0 **** 0.06
8304 H 112.24727637425477 99.8712367959196 95.01316572696925 H 0.0 **** 0.06
8305 H 112.72184996127442 99.98923666421899 96.7244917684946 H 0.0 **** 0.06
8306 C 0.6155948342057656 9.596131299720028 99.62646045628452 C 0.0 **** -0.24
8307 H 1.1637313496714938 10.536731784000533 99.67064188333512 H 0.0 **** 0.06
8308 H -0.220749441008806 9.695254219372853 98.93449090034449 H 0.0 **** 0.06
8309 H 0.2385440353389754 9.34858982797111 100.61936576391383 H 0.0 **** 0.06
8310 H 1.2808217339140384 8.803950637470404 99.28234280450843 H 0.0 **** 0.06
8311 C 66.14945110734027 46.11077490642367 66.20172843324417 C 0.0 **** -0.24
8312 H 66.71231966824422 46.104179542216855 67.1354599178689 H 0.0 **** 0.06
8313 H 66.5528241888681 45.35336071926025 65.5287411073192 H 0.0 **** 0.06
8314 H 66.23040739959976 47.09252219659294 65.73592669563999 H 0.0 **** 0.06
8315 H 65.10105547505796 45.89186374836078 66.40826550461603 H 0.0 **** 0.06
8316 C 108.36255036079487 15.45935933527798 36.15290785781511 C 0.0 **** -0.24
8317 H 107.73352101062395 14.770259402872028 35.58912124759567 H 0.0 **** 0.06
8318 H 108.1744242520177 15.333487196108024 37.2192941645508 H 0.0 **** 0.06
8319 H 108.13102441807203 16.483776877029953 35.86077874408065 H 0.0 **** 0.06
8320 H 109.4104951681638 15.249648737701648 35.94125945824112 H 0.0 **** 0.06
8321 C 89.78917068785893 92.21276125137655 90.8451053479202 C 0.0 **** -0.24
8322 H 89.80434880060903 92.36818826558789 91.92446400421397 H 0.0 **** 0.06
8323 H 90.27737801905727 91.26762553577802 90.608413523114 H 0.0 **** 0.06
8324 H 90.3183086282948 93.02876435090528 90.3533788790856 H 0.0 **** 0.06
8325 H 88.7568666088224 92.18573726381862 90.49626733982763 H 0.0 **** 0.06
8326 C 76.02277870369898 54.850890796258724 68.92335087694414 C 0.0 **** -0.24
8327 H 75.80140450251196 55.24353301781215 67.93127201258574 H 0.0 **** 0.06
8328 H 76.99522485763222 55.21929125251622 69.25087427782148 H 0.0 **** 0.06
8329 H 76.03982614769043 53.762269833610965 68.88847018650011 H 0.0 **** 0.06
8330 H 75.25495134879264 55.18046268433674 69.6237568493757 H 0.0 **** 0.06
8331 C 40.59604530941084 84.97307363352814 19.53677204896661 C 0.0 **** -0.24
8332 H 40.125371298705204 85.61671099231927 18.792815760401368 H 0.0 **** 0.06
8333 H 40.149272322600666 85.16155087793675 20.51310406548157 H 0.0 **** 0.06
8334 H 41.66387888580306 85.18667776958964 19.577351094364957 H 0.0 **** 0.06
8335 H 40.44402276978343 83.92951523327957 19.261904893250772 H 0.0 **** 0.06
8336 C 24.967671490891462 41.70034881563657 110.59560103208261 C 0.0 **** -0.24
8337 H 24.007463535028307 41.73485535126423 110.07976480424425 H 0.0 **** 0.06
8338 H 24.801811450821276 41.55018752997489 111.66262494438955 H 0.0 **** 0.06
8339 H 25.496710263362502 42.640156144286664 110.43910790468303 H 0.0 **** 0.06
8340 H 25.562719830259084 40.877204913893365 110.2006636594059 H 0.0 **** 0.06
8341 C 32.45330124324293 88.82058046346143 38.98378820959479 C 0.0 **** -0.24
8342 H 31.500132093199923 88.57129255289317 39.4504262847272 H 0.0 **** 0.06
8343 H 33.23931939825532 88.1958762452035 39.40738003029283 H 0.0 **** 0.06
8344 H 32.6835961098557 89.87032667305795 39.168569690696415 H 0.0 **** 0.06
8345 H 32.3880605400271 88.64626457679657 37.91036913202673 H 0.0 **** 0.06
8346 C 116.07433570107729 82.75753216123144 55.58770698702898 C 0.0 **** -0.24
8347 H 116.43596321390791 82.14779418734503 56.41508178267924 H 0.0 **** 0.06
8348 H 116.55823463997008 82.43957534557495 54.66381073292635 H 0.0 **** 0.06
8349 H 116.3074459315497 83.80501258112798 55.77855338712763 H 0.0 **** 0.06
8350 H 114.99471657687393 82.63759050966365 55.493279463062066 H 0.0 **** 0.06
8351 C 16.048058000149496 27.76275784138994 7.853557187709839 C 0.0 **** -0.24
8352 H 15.979080639826833 27.922735981605427 6.77744655263076 H 0.0 **** 0.06
8353 H 15.047821074823503 27.6197140372621 8.264080765210739 H 0.0 **** 0.06
8354 H 16.512117457685406 28.631040695055134 8.32118167561373 H 0.0 **** 0.06
8355 H 16.652431829873194 26.877963669137614 8.051060240507066 H 0.0 **** 0.06
8356 C 116.706904879098 70.73022879212675 101.88807739468874 C 0.0 **** -0.24
8357 H 117.12685378473108 70.41267858707991 102.84254832428698 H 0.0 **** 0.06
8358 H 116.93361237533281 71.78475748597106 101.72444355888794 H 0.0 **** 0.06
8359 H 115.62713655636153 70.58837972031824 101.90032742300738 H 0.0 **** 0.06
8360 H 117.1423034898063 70.13595795278985 101.08480522584489 H 0.0 **** 0.06
8361 C 108.09237761038324 13.258689708801086 9.443788298818788 C 0.0 **** -0.24
8362 H 109.15729910131314 13.444211892093278 9.308161489339156 H 0.0 **** 0.06
8363 H 107.7722519635928 13.661552153855268 10.405495362462858 H 0.0 **** 0.06
8364 H 107.90528998026431 12.185339982143603 9.418381086870198 H 0.0 **** 0.06
8365 H 107.5340711163393 13.744289630204634 8.642626258949178 H 0.0 **** 0.06
8366 C 23.371412707764364 72.95441064514989 14.264391527781871 C 0.0 **** -0.24
8367 H 22.73162576850791 73.83223252743562 14.171147712512962 H 0.0 **** 0.06
8368 H 23.65226485236016 72.82045186332715 15.30936622753461 H 0.0 **** 0.06
8369 H 24.26851280971519 73.09369087717192 13.660869027654538 H 0.0 **** 0.06
8370 H 22.832553307304607 72.07358862705033 13.916543812936695 H 0.0 **** 0.06
8371 C 9.74741224850942 35.85571440829045 4.217044055522919 C 0.0 **** -0.24
8372 H 9.200075162220486 35.59937974712028 3.3096562377644716 H 0.0 **** 0.06
8373 H 9.17820837489991 36.587832444652065 4.789410255434063 H 0.0 **** 0.06
8374 H 10.716775841912181 36.27668106532923 3.950024829427079 H 0.0 **** 0.06
8375 H 9.893817492052875 34.95743997718233 4.8176425664749445 H 0.0 **** 0.06
8376 C 53.88212684700571 44.480330229839865 16.576278975860674 C 0.0 **** -0.24
8377 H 53.0656147593528 44.57157848521672 15.85885244601873 H 0.0 **** 0.06
8378 H 53.74005565364095 43.58065582547317 17.175771894032778 H 0.0 **** 0.06
8379 H 53.890632034645165 45.35485008159242 17.227970421638098 H 0.0 **** 0.06
8380 H 54.829131128674135 44.41635487100075 16.04226596868504 H 0.0 **** 0.06
8381 C 71.25888716269765 22.479033129773313 29.607292237336026 C 0.0 **** -0.24
8382 H 70.22402071656313 22.817568594751208 29.65204836857714 H 0.0 **** 0.06
8383 H 71.86144631414959 23.05981294545603 30.30645266538272 H 0.0 **** 0.06
8384 H 71.6415816820014 22.614088373246375 28.5959842165708 H 0.0 **** 0.06
8385 H 71.30636873991995 21.422879997189085 29.876495035358175 H 0.0 **** 0.06
8386 C 110.16624433711203 69.70469210395578 4.10626851081156 C 0.0 **** -0.24
8387 H 110.9418071579754 70.3334872655874 3.6692136984528076 H 0.0 **** 0.06
8388 H 109.77107751419736 70.18673697593766 5.001517078830091 H 0.0 **** 0.06
8389 H 110.59001642963364 68.73623407897088 4.371350032141407 H 0.0 **** 0.06
8390 H 109.36241280498767 69.56440672619004 3.3836940603007974 H 0.0 **** 0.06
8391 C 48.400946789291936 98.78825746495411 0.3180032289965009 C 0.0 **** -0.24
8392 H 47.53390257464895 98.13701236911814 0.4349998344995889 H 0.0 **** 0.06
8393 H 48.36451288259076 99.57996697466069 1.0666156881843865 H 0.0 **** 0.06
8394 H 48.391467804400634 99.22911643951016 -0.6782941251437764 H 0.0 **** 0.06
8395 H 49.31234529264867 98.2052830841262 0.4496109364441381 H 0.0 **** 0.06
8396 C 49.37711682393925 43.0602190525802 63.44512704227188 C 0.0 **** -0.24
8397 H 48.99762269170762 42.803014558545534 62.45604360916565 H 0.0 **** 0.06
8398 H 49.58016138651346 42.14720106310722 64.00446414783752 H 0.0 **** 0.06
8399 H 48.63421503459694 43.65494012403565 63.975769756502615 H 0.0 **** 0.06
8400 H 50.29687710879467 43.63572094264756 63.34203223122185 H 0.0 **** 0.06
8401 C 42.15428745461462 3.594485988173929 31.08761289598533 C 0.0 **** -0.24
8402 H 42.503892939498996 4.049479487145291 30.160633440357287 H 0.0 **** 0.06
8403 H 41.75364714604257 4.367694623116719 31.743078157661586 H 0.0 **** 0.06
8404 H 42.9870016738936 3.093668257632416 31.58237207801818 H 0.0 **** 0.06
8405 H 41.37464733161586 2.86752232897085 30.863552658317985 H 0.0 **** 0.06
8406 C 61.46427206871829 94.17745399538433 69.64410218079004 C 0.0 **** -0.24
8407 H 60.81199424860023 95.01324646206342 69.39283238928431 H 0.0 **** 0.06
8408 H 62.214653130698196 94.50489776097615 70.36266096147321 H 0.0 **** 0.06
8409 H 61.95743996235183 93.81813842568539 68.7413044888444 H 0.0 **** 0.06
8410 H 60.87167715607666 93.37203845592234 70.07860428165057 H 0.0 **** 0.06
8411 C 86.92741178324735 7.3201044580923735 45.988211742015324 C 0.0 **** -0.24
8412 H 87.5224045367612 8.232226468257807 45.962270594310525 H 0.0 **** 0.06
8413 H 87.53594584729308 6.480033750836753 45.65539439064554 H 0.0 **** 0.06
8414 H 86.06580449318784 7.42905888535941 45.329938436772665 H 0.0 **** 0.06
8415 H 86.58468835741496 7.138998133228483 47.007555250569524 H 0.0 **** 0.06
8416 C 16.252718311535062 97.793976327071 97.6667732784851 C 0.0 **** -0.24
8417 H 16.427076258478905 96.9100197020251 98.28067309816777 H 0.0 **** 0.06
8418 H 16.007573904889114 98.63946966771317 98.30975011465833 H 0.0 **** 0.06
8419 H 15.425644771515579 97.60486602747687 96.98432733127962 H 0.0 **** 0.06
8420 H 17.151911698307572 98.02136765551404 97.09438932584985 H 0.0 **** 0.06
8421 C 107.49856333813389 89.88872897627726 90.8853571558002 C 0.0 **** -0.24
8422 H 108.14594759732415 89.02712889574917 91.04776673713206 H 0.0 **** 0.06
8423 H 107.20612482471083 89.93061204646611 89.83592134648472 H 0.0 **** 0.06
8424 H 108.03429390158286 90.8008429479863 91.14975623975624 H 0.0 **** 0.06
8425 H 106.60910753320965 89.79704562768109 91.50801954444492 H 0.0 **** 0.06
8426 C 63.22952226057302 103.44155637095969 69.13971794526864 C 0.0 **** -0.24
8427 H 62.407003691597794 102.75091882945875 69.3282756591318 H 0.0 **** 0.06
8428 H 63.91713768854018 103.42589862041797 69.98589752437024 H 0.0 **** 0.06
8429 H 62.83521630486746 104.44915153669953 69.00985366689474 H 0.0 **** 0.06
8430 H 63.75758052051103 103.13836775149076 68.23517433070188 H 0.0 **** 0.06
8431 C 16.8453809234488 8.274117321568227 108.11562371229027 C 0.0 **** -0.24
8432 H 16.084768938540492 7.626458217952688 108.55130024601627 H 0.0 **** 0.06
8433 H 17.705672518626073 8.322923153518147 108.78393081704087 H 0.0 **** 0.06
8434 H 16.435000197296404 9.274490855208057 107.97762579960775 H 0.0 **** 0.06
8435 H 17.15593659144838 7.870771894029502 107.1520145676595 H 0.0 **** 0.06
8436 C 28.8491471376405 14.98597176521691 72.5011968273565 C 0.0 **** -0.24
8437 H 29.759042492071217 14.84163446996261 71.91910222683762 H 0.0 **** 0.06
8438 H 28.04490968442866 15.315141783862334 71.84207978989815 H 0.0 **** 0.06
8439 H 29.023959888131856 15.741976079733387 73.26675737281431 H 0.0 **** 0.06
8440 H 28.568490749898558 14.045398165384352 72.97590126230469 H 0.0 **** 0.06
8441 C 6.308750573997344 56.83426788279951 107.80370244413228 C 0.0 **** -0.24
8442 H 5.668290053066357 56.09110808391563 108.27797848164639 H 0.0 **** 0.06
8443 H 5.757294754528857 57.33199503646591 107.00529014816496 H 0.0 **** 0.06
8444 H 7.187387663644159 56.342030800003215 107.38595548060377 H 0.0 **** 0.06
8445 H 6.62132724391266 57.570047468867614 108.54419494979035 H 0.0 **** 0.06
8446 C 4.548615186642607 31.8597839735638 45.8326704573532 C 0.0 **** -0.24
8447 H 3.9962001292332587 31.990663368599577 46.763494925108375 H 0.0 **** 0.06
8448 H 5.372647680092115 31.1648919821314 45.99495891460023 H 0.0 **** 0.06
8449 H 4.942748175354254 32.823197582591824 45.50655318950561 H 0.0 **** 0.06
8450 H 3.8818543270694192 31.46227042024536 45.06820801107895 H 0.0 **** 0.06
8451 C 43.25167633101097 112.56916139257527 27.957273473982063 C 0.0 **** -0.24
8452 H 42.82885476191262 113.36389024881674 27.342218221431153 H 0.0 **** 0.06
8453 H 44.27584694802533 112.82612073133183 28.228384947748125 H 0.0 **** 0.06
8454 H 43.248536318873505 111.6343976024863 27.395468491179415 H 0.0 **** 0.06
8455 H 42.65382849740587 112.45166300802845 28.860276230332083 H 0.0 **** 0.06
8456 C 75.33507944213463 57.4247187461069 108.89615737119237 C 0.0 **** -0.24
8457 H 76.0161162665834 56.91734395096248 109.58040857061663 H 0.0 **** 0.06
8458 H 74.81819203421705 56.68572742937534 108.28382640349002 H 0.0 **** 0.06
8459 H 75.90137958715187 58.098496902462536 108.25454923191683 H 0.0 **** 0.06
8460 H 74.60533455709714 57.996611039036914 109.46931230041136 H 0.0 **** 0.06
8461 C 31.97153578977688 35.046895330921984 115.50920402684574 C 0.0 **** -0.24
8462 H 32.376271384477775 36.05778023102562 115.5620794009279 H 0.0 **** 0.06
8463 H 32.027544993867934 34.686645934344796 114.48221898396602 H 0.0 **** 0.06
8464 H 30.93155650971883 35.05468796618359 115.83593840346254 H 0.0 **** 0.06
8465 H 32.55134354991699 34.39039433554359 116.15797853949218 H 0.0 **** 0.06
8466 C 25.511413267002062 49.63917869908627 106.67848256527503 C 0.0 **** -0.24
8467 H 25.92495345235129 50.58293317475645 106.32394634946507 H 0.0 **** 0.06
8468 H 24.436460681227423 49.623255798577276 106.49675087977181 H 0.0 **** 0.06
8469 H 25.70184043049057 49.538070409884966 107.74655069294272 H 0.0 **** 0.06
8470 H 25.982592740475162 48.81387252804177 106.1449635173089 H 0.0 **** 0.06
8471 C 48.71519264092447 82.60287742725322 91.23337766453207 C 0.0 **** -0.24
8472 H 48.01022252792586 83.17670470720364 91.83542533191493 H 0.0 **** 0.06
8473 H 49.02717973473392 83.19720999523645 90.37475854099796 H 0.0 **** 0.06
8474 H 48.23571412922607 81.68732540457518 90.88718868598053 H 0.0 **** 0.06
8475 H 49.58667013419884 82.35100619117154 91.83735846004777 H 0.0 **** 0.06
8476 C 79.71051651018877 81.42101670941304 44.11297407917384 C 0.0 **** -0.24
8477 H 80.61953108023238 81.87958522501879 43.72188268709852 H 0.0 **** 0.06
8478 H 79.72863205801042 81.45365118685675 45.20238529139987 H 0.0 **** 0.06
8479 H 79.65578223849991 80.3838901723559 43.78051245404836 H 0.0 **** 0.06
8480 H 78.84124882570441 81.96686907118755 43.746657497825126 H 0.0 **** 0.06
8481 C 31.86910963097978 45.350233228844246 14.300359381758753 C 0.0 **** -0.24
8482 H 32.77506609318144 45.05466845446905 13.770926349015468 H 0.0 **** 0.06
8483 H 31.620510743106735 44.59394669083346 15.04586613205224 H 0.0 **** 0.06
8484 H 31.047272614111222 45.443283659835544 13.590037249899098 H 0.0 **** 0.06
8485 H 32.03343068920742 46.30810493973692 14.794273708298874 H 0.0 **** 0.06
8486 C 115.86023937930374 11.27718530497964 78.00264428514834 C 0.0 **** -0.24
8487 H 116.01623512277153 11.56105131063677 76.96245184372586 H 0.0 **** 0.06
8488 H 116.26536975360847 10.27898783886927 78.17077876737739 H 0.0 **** 0.06
8489 H 114.79244669227843 11.278836794016087 78.22275799723201 H 0.0 **** 0.06
8490 H 116.36600296287592 11.989820530564344 78.65416112996377 H 0.0 **** 0.06
8491 C 93.76789480350737 99.59608766248141 12.712639730381937 C 0.0 **** -0.24
8492 H 93.10420172460852 99.57573699574993 13.576509662004668 H 0.0 **** 0.06
8493 H 94.77454273587898 99.86475447106105 13.034274774977206 H 0.0 **** 0.06
8494 H 93.40643450647491 100.33181498363024 11.993951516570576 H 0.0 **** 0.06
8495 H 93.78563298199344 98.61117110536824 12.245017283749888 H 0.0 **** 0.06
8496 C 49.427057403805975 57.69269117640937 48.85464260489911 C 0.0 **** -0.24
8497 H 49.2949538080932 58.688371353074785 49.277489579159635 H 0.0 **** 0.06
8498 H 49.57569183916084 56.97315635920728 49.65941299481386 H 0.0 **** 0.06
8499 H 50.298485427247584 57.69014910930338 48.19886384593096 H 0.0 **** 0.06
8500 H 48.540439244410095 57.420818804498026 48.28234933687165 H 0.0 **** 0.06
8501 C 48.81837866855403 15.715527584397591 90.11049375804248 C 0.0 **** -0.24
8502 H 48.36341618186975 15.866974042926813 89.13168424391637 H 0.0 **** 0.06
8503 H 48.90927040021194 16.674095727459303 90.62158649591393 H 0.0 **** 0.06
8504 H 49.80679129702003 15.27385506449815 89.9870321105175 H 0.0 **** 0.06
8505 H 48.19269987261657 15.046849549668934 90.70198823544197 H 0.0 **** 0.06
8506 C 113.9519761674598 43.496798379126915 80.20147470067582 C 0.0 **** -0.24
8507 H 113.97031570449161 44.26480195102482 80.97468239281807 H 0.0 **** 0.06
8508 H 112.9890559333171 43.51722749522759 79.6912519739206 H 0.0 **** 0.06
8509 H 114.10127277164253 42.518280948430856 80.65829101850838 H 0.0 **** 0.06
8510 H 114.74853009985344 43.68771542042231 79.48250706062103 H 0.0 **** 0.06
8511 C 57.82539650984012 86.3039725028396 53.63328008817835 C 0.0 **** -0.24
8512 H 57.754139584778045 87.17253674716392 54.28798656479148 H 0.0 **** 0.06
8513 H 57.23815444355745 85.48599173237545 54.04937156915595 H 0.0 **** 0.06
8514 H 58.86860416360213 85.9981976554852 53.54962879801638 H 0.0 **** 0.06
8515 H 57.442867024318616 86.56195749128165 52.64546434808638 H 0.0 **** 0.06
8516 C 82.03136548469627 108.19765146947748 113.2300797876204 C 0.0 **** -0.24
8517 H 82.38542219182517 107.32249713477421 112.68537831427255 H 0.0 **** 0.06
8518 H 82.729638996365 109.02282347591482 113.0840649685804 H 0.0 **** 0.06
8519 H 81.96349312376839 107.96155423147712 114.29144981248834 H 0.0 **** 0.06
8520 H 81.04774732554205 108.4837924615662 112.85791234873352 H 0.0 **** 0.06
8521 C 65.6631877968407 86.99879674548913 6.187713698845869 C 0.0 **** -0.24
8522 H 65.10567284357813 86.42152020383159 5.450057381351286 H 0.0 **** 0.06
8523 H 65.168822429604 86.92287277009814 7.156761408452226 H 0.0 **** 0.06
8524 H 65.70021699615009 88.0432376084604 5.878590634357735 H 0.0 **** 0.06
8525 H 66.67718179472624 86.6056574025665 6.264633311936166 H 0.0 **** 0.06
8526 C 105.08983979641633 65.8523632357186 51.78610050145585 C 0.0 **** -0.24
8527 H 104.27970790729006 65.13763070111708 51.930771474770665 H 0.0 **** 0.06
8528 H 105.87060876332751 65.39662233198817 51.177257329760494 H 0.0 **** 0.06
8529 H 105.50122441369126 66.13513279013222 52.75505408082927 H 0.0 **** 0.06
8530 H 104.70553688985748 66.73920884835024 51.28107459481038 H 0.0 **** 0.06
8531 C 49.350567714305946 9.182938477877173 46.31464523241354 C 0.0 **** -0.24
8532 H 49.963336827458356 9.27210876816163 45.41781826064164 H 0.0 **** 0.06
8533 H 49.05653411541139 10.176731625091193 46.654578280982264 H 0.0 **** 0.06
8534 H 49.92192466504556 8.684776199416945 47.09729744742779 H 0.0 **** 0.06
8535 H 48.458692866913296 8.597962297378729 46.08754799671436 H 0.0 **** 0.06
8536 C 57.32518157186726 37.62823849024181 9.272542064537333 C 0.0 **** -0.24
8537 H 56.93322577931997 36.61110566397085 9.287152097787043 H 0.0 **** 0.06
8538 H 56.73456798250584 38.2345600152328 8.585422868500586 H 0.0 **** 0.06
8539 H 58.363547659842254 37.61182067883104 8.943013268005416 H 0.0 **** 0.06
8540 H 57.268263441579194 38.05355278709658 10.274304019726856 H 0.0 **** 0.06
8541 C 104.04687965859222 95.1993495649516 22.00043558660056 C 0.0 **** -0.24
8542 H 103.16880729679536 95.18735380767248 21.355169780214965 H 0.0 **** 0.06
8543 H 103.85349914990468 94.59733049902235 22.88848007215978 H 0.0 **** 0.06
8544 H 104.26552157096671 96.22582470550856 22.29739106202041 H 0.0 **** 0.06
8545 H 104.90005651193152 94.78824662677118 21.46085557017392 H 0.0 **** 0.06
8546 C 101.92123892633552 97.58244157769502 69.72892403680996 C 0.0 **** -0.24
8547 H 102.55030702772618 97.99370205137737 70.5179095048459 H 0.0 **** 0.06
8548 H 101.38286986514072 96.7142721263202 70.10884180553481 H 0.0 **** 0.06
8549 H 102.54472581225707 97.28507669696273 68.88556218413092 H 0.0 **** 0.06
8550 H 101.20758463688921 98.33959737902805 69.40274055462544 H 0.0 **** 0.06
8551 C 111.48757955176976 98.5971370003295 44.057343525901686 C 0.0 **** -0.24
8552 H 112.50356782671767 98.27333075569612 43.83201644805321 H 0.0 **** 0.06
8553 H 111.27718783272212 98.42537460657377 45.1131252219117 H 0.0 **** 0.06
8554 H 110.78220983063281 98.03070875216147 43.4488531043491 H 0.0 **** 0.06
8555 H 111.38739028187806 99.65981446674164 43.834140169883625 H 0.0 **** 0.06
8556 C 94.02914694262006 21.26629665084681 53.47028697919072 C 0.0 **** -0.24
8557 H 94.0667755306165 20.47614503866842 54.22030464220401 H 0.0 **** 0.06
8558 H 94.97204292215366 21.29189576920139 52.92249238266862 H 0.0 **** 0.06
8559 H 93.86772703874578 22.226249495158072 53.96180114737939 H 0.0 **** 0.06
8560 H 93.21072545151503 21.070528661660518 52.77773221360289 H 0.0 **** 0.06
8561 C 50.28140470563744 23.073672123029542 64.67053332539453 C 0.0 **** -0.24
8562 H 50.488628945223354 24.097824238748835 64.36436118963167 H 0.0 **** 0.06
8563 H 50.29501169077827 23.010074992810317 65.75891297457403 H 0.0 **** 0.06
8564 H 51.0422315064348 22.40990432687173 64.25883209144152 H 0.0 **** 0.06
8565 H 49.30086633609784 22.774933630260655 64.30099613504589 H 0.0 **** 0.06
8566 C 41.80879115935343 107.94424709552322 46.84794046212319 C 0.0 **** -0.24
8567 H 41.64496305847706 107.43030823702824 45.90057295678788 H 0.0 **** 0.06
8568 H 41.54931082169473 107.27824932143642 47.67121679320795 H 0.0 **** 0.06
8569 H 41.18290497515818 108.8361222417933 46.89072159774035 H 0.0 **** 0.06
8570 H 42.85700741530286 108.23136488197605 46.92886018662958 H 0.0 **** 0.06
8571 C 1.229913916867602 77.21484993203586 26.457461682132646 C 0.0 **** -0.24
8572 H 0.2877012288842167 77.7469903159975 26.326993987424032 H 0.0 **** 0.06
8573 H 1.959324770446031 77.58601173948648 25.738233883816577 H 0.0 **** 0.06
8574 H 1.0699788540972008 76.14862753995186 26.29654691205684 H 0.0 **** 0.06
8575 H 1.60129519793459 77.3771649047938 27.46974415765669 H 0.0 **** 0.06
8576 C 112.15939289912352 74.316144120313 82.8956205915824 C 0.0 **** -0.24
8577 H 112.92810345813002 74.80241244463912 83.49575818058565 H 0.0 **** 0.06
8578 H 112.00194464074626 74.88488504279181 81.97809517461357 H 0.0 **** 0.06
8579 H 111.22919583036494 74.2730739439491 83.46082254644833 H 0.0 **** 0.06
8580 H 112.48014452519851 73.30415949927354 82.64541952630867 H 0.0 **** 0.06
8581 C 10.891100635992757 23.241266787465747 111.16190617395526 C 0.0 **** -0.24
8582 H 10.950517699190186 22.168385049195507 110.97827783606137 H 0.0 **** 0.06
8583 H 11.897586949954103 23.6476489035839 111.27069932979659 H 0.0 **** 0.06
8584 H 10.324601771726378 23.422538607965635 112.07483742994052 H 0.0 **** 0.06
8585 H 10.392582320445996 23.725961193701607 110.3224207412694 H 0.0 **** 0.06
8586 C 1.5989635515304883 63.36437532040592 99.21108642722325 C 0.0 **** -0.24
8587 H 1.536019638325456 63.76489296244855 100.22262318746505 H 0.0 **** 0.06
8588 H 1.6953457834858767 62.27933840927738 99.2559569238843 H 0.0 **** 0.06
8589 H 2.4684875214604887 63.78646762119546 98.70694742129848 H 0.0 **** 0.06
8590 H 0.6959714950687896 63.627109039268724 98.65976953107861 H 0.0 **** 0.06
8591 C 115.60498144754938 50.00803008347886 2.7989725301345345 C 0.0 **** -0.24
8592 H 116.2449933849414 50.243806818303135 1.949634594879683 H 0.0 **** 0.06
8593 H 114.56095283693442 50.15803652903518 2.5206572423095963 H 0.0 **** 0.06
8594 H 115.85586388486496 50.66075462591555 3.63454095058745 H 0.0 **** 0.06
8595 H 115.75705146675004 48.968605368772295 3.0912206875158432 H 0.0 **** 0.06
8596 C 41.445017630442955 11.693973292071963 51.75573183760693 C 0.0 **** -0.24
8597 H 41.057279551054194 10.69608820673296 51.54771362184073 H 0.0 **** 0.06
8598 H 42.325987694176405 11.876495257744704 51.141624066883224 H 0.0 **** 0.06
8599 H 41.71452856989466 11.766181868515194 52.809593670060735 H 0.0 **** 0.06
8600 H 40.67943816866961 12.435089958650163 51.52533834919123 H 0.0 **** 0.06
8601 C 21.705815188656914 74.86337571788573 81.49042846267668 C 0.0 **** -0.24
8602 H 21.466750635409795 75.92418347816417 81.57505167951416 H 0.0 **** 0.06
8603 H 22.094084290160225 74.50207103805806 82.44206123248051 H 0.0 **** 0.06
8604 H 22.457560225953387 74.7216129089434 80.71373502797456 H 0.0 **** 0.06
8605 H 20.804992049574423 74.30849881150999 81.22952959793525 H 0.0 **** 0.06
8606 C 39.90307444308776 108.76065449807386 18.063937686671455 C 0.0 **** -0.24
8607 H 40.92756527644649 108.94632593458611 17.740922776452464 H 0.0 **** 0.06
8608 H 39.432560932589425 108.04707498205727 17.388491759321994 H 0.0 **** 0.06
8609 H 39.34308704754082 109.69614639118033 18.052666311776235 H 0.0 **** 0.06
8610 H 39.90969362997399 108.35429527071769 19.075129214254606 H 0.0 **** 0.06
8611 C 98.96660493591938 104.85743923896251 91.9423938526092 C 0.0 **** -0.24
8612 H 99.25138868578156 103.94063032202246 92.45870441569497 H 0.0 **** 0.06
8613 H 99.68527860708843 105.64333761447159 92.17392320630546 H 0.0 **** 0.06
8614 H 97.97372094458851 105.16361535760191 92.26912221927685 H 0.0 **** 0.06
8615 H 98.95723820367462 104.67913420348103 90.86668264691573 H 0.0 **** 0.06
8616 C 69.53679798674219 37.185517140058096 33.90419887803712 C 0.0 **** -0.24
8617 H 70.21988422027388 38.03026835375533 33.982163258222855 H 0.0 **** 0.06
8618 H 68.59229307788229 37.51971206138546 33.47498658677918 H 0.0 **** 0.06
8619 H 69.3584240177345 36.77022212579574 34.89653440429446 H 0.0 **** 0.06
8620 H 69.97633807345335 36.41970217518755 33.26361552822894 H 0.0 **** 0.06
8621 C 2.9816821641497313 90.10064793139469 88.57851398596748 C 0.0 **** -0.24
8622 H 2.3061500434322966 89.51388694377368 89.20122248897158 H 0.0 **** 0.06
8623 H 3.9900577801186614 89.69222329661204 88.6514108244586 H 0.0 **** 0.06
8624 H 2.983109224972054 91.13550641629098 88.92073298287846 H 0.0 **** 0.06
8625 H 2.647430722308627 90.06165294847108 87.54142461149647 H 0.0 **** 0.06
8626 C 71.49895910826876 18.282032827089267 58.95716496701522 C 0.0 **** -0.24
8627 H 70.85385954050412 18.83709112151689 58.27748291419158 H 0.0 **** 0.06
8628 H 71.15261099835647 17.250122886030965 59.02526711687588 H 0.0 **** 0.06
8629 H 71.46796890511138 18.74188099421977 59.94526125465504 H 0.0 **** 0.06
8630 H 72.52236785929693 18.2980184854824 58.58079544064074 H 0.0 **** 0.06
8631 C 111.37139359288074 111.76142640420338 92.3606076707477 C 0.0 **** -0.24
8632 H 111.36276864082372 112.84712629167254 92.45260920472879 H 0.0 **** 0.06
8633 H 111.19208806301108 111.48370444406743 91.32189933321433 H 0.0 **** 0.06
8634 H 110.5897302156909 111.33784658333036 92.99066038574529 H 0.0 **** 0.06
8635 H 112.34077942119553 111.37836244732082 92.67834662899037 H 0.0 **** 0.06
8636 C 33.20415399098292 84.56015604362926 116.35274164032683 C 0.0 **** -0.24
8637 H 33.24558852512726 83.49187415994129 116.56631127277996 H 0.0 **** 0.06
8638 H 32.78812316564921 85.08618504772636 117.21181194382609 H 0.0 **** 0.06
8639 H 32.57264338624563 84.73091607507962 115.48025932178555 H 0.0 **** 0.06
8640 H 34.20974706101234 84.9294942423989 116.15153816569028 H 0.0 **** 0.06
8641 C 81.61559788468861 34.370297478680925 54.405661733938956 C 0.0 **** -0.24
8642 H 81.75344789192621 35.27390601212909 53.81249066575472 H 0.0 **** 0.06
8643 H 82.42447156148413 33.670485630532426 54.19522711538639 H 0.0 **** 0.06
8644 H 80.6601604587492 33.9111667616005 54.149520478388325 H 0.0 **** 0.06
8645 H 81.62244794750634 34.626274091937375 55.46507100552725 H 0.0 **** 0.06
8646 C 64.31992805418463 109.56064642908166 114.22017808019667 C 0.0 **** -0.24
8647 H 64.8269913055394 108.69311478872807 113.79696924331186 H 0.0 **** 0.06
8648 H 64.81082776619073 109.84905827351665 115.15046520406274 H 0.0 **** 0.06
8649 H 63.2788061801821 109.30939919205417 114.4205926099943 H 0.0 **** 0.06
8650 H 64.36445942741827 110.38819439454849 113.51309731375645 H 0.0 **** 0.06
8651 C 15.075159395355378 114.3468397036408 35.24798826118595 C 0.0 **** -0.24
8652 H 15.024670642257934 114.10475609306616 36.310361300441 H 0.0 **** 0.06
8653 H 16.04629948823474 114.04798400466723 34.85373562319191 H 0.0 **** 0.06
8654 H 14.942093173088292 115.4194857161284 35.1134900200918 H 0.0 **** 0.06
8655 H 14.286669952620318 113.81315066879165 34.717408036060036 H 0.0 **** 0.06
8656 C 26.123771294009728 20.76779948947231 14.031639040648685 C 0.0 **** -0.24
8657 H 25.034691936837774 20.819757516184893 14.02277748401741 H 0.0 **** 0.06
8658 H 26.521347352682504 21.58426292812922 14.635024269124614 H 0.0 **** 0.06
8659 H 26.499848196345418 20.851842843606846 13.011404304248885 H 0.0 **** 0.06
8660 H 26.43824131832939 19.81431062530308 14.457158267982862 H 0.0 **** 0.06
8661 C 39.57324855433521 53.12276535653257 58.36605956199825 C 0.0 **** -0.24
8662 H 39.14824573063893 53.6465825739607 57.508870443121516 H 0.0 **** 0.06
8663 H 38.77273433062394 52.65254129351962 58.93689776616328 H 0.0 **** 0.06
8664 H 40.10273295053656 53.83485252205037 58.998904801591 H 0.0 **** 0.06
8665 H 40.26892359145551 52.36039233856724 58.01641324014559 H 0.0 **** 0.06
8666 C 99.92884041708257 13.804586778981701 74.86078966643842 C 0.0 **** -0.24
8667 H 100.65858049215177 13.890724789838231 75.66594719013287 H 0.0 **** 0.06
8668 H 99.48938755554116 14.782721370525309 74.66189787350291 H 0.0 **** 0.06
8669 H 99.14484587906202 13.105969613095283 75.15435674763552 H 0.0 **** 0.06
8670 H 100.42243482426048 13.438002614322727 73.96131008494834 H 0.0 **** 0.06
8671 C 37.83827597967879 103.11875879814536 81.97532103846265 C 0.0 **** -0.24
8672 H 37.65933801482819 103.84684165737815 82.76748554777728 H 0.0 **** 0.06
8673 H 36.91843337961387 102.9618964063612 81.41176646393603 H 0.0 **** 0.06
8674 H 38.16045829620886 102.17472676193114 82.4158446931242 H 0.0 **** 0.06
8675 H 38.615004345116915 103.49216289425206 81.30856070188673 H 0.0 **** 0.06
8676 C 96.76930360944496 30.183964897389217 30.511904382857978 C 0.0 **** -0.24
8677 H 97.06611514058318 29.443470557234917 29.768790633781833 H 0.0 **** 0.06
8678 H 97.60444280464864 30.375473731114283 31.185637900999495 H 0.0 **** 0.06
8679 H 95.92106274109304 29.806353294530055 31.082548624710626 H 0.0 **** 0.06
8680 H 96.48698752544442 31.10861586755877 30.010120482628423 H 0.0 **** 0.06
8681 C 15.1533687804353 106.86161278357696 17.024926938957805 C 0.0 **** -0.24
8682 H 14.07321624271853 106.77736274638542 17.142928512779292 H 0.0 **** 0.06
8683 H 15.378118621771392 107.55781257703654 16.21668295183332 H 0.0 **** 0.06
8684 H 15.569981067417757 105.88198446723649 16.788109287359163 H 0.0 **** 0.06
8685 H 15.592950194287255 107.22836875048245 17.953221227482715 H 0.0 **** 0.06
8686 C 109.19353617086315 44.67661919736442 6.245594026877967 C 0.0 **** -0.24
8687 H 109.15073184707103 44.16636131844308 5.283062632783398 H 0.0 **** 0.06
8688 H 109.42891984402155 43.95565174402215 7.02820210126157 H 0.0 **** 0.06
8689 H 108.2281090044604 45.137908859850114 6.454833671575258 H 0.0 **** 0.06
8690 H 109.9645145126199 45.445675088780746 6.215422516260205 H 0.0 **** 0.06
8691 C 20.216623399462804 45.7772095995835 68.01948686242781 C 0.0 **** -0.24
8692 H 20.23653544011495 45.13310009953054 68.89890340733862 H 0.0 **** 0.06
8693 H 21.121477303690142 46.38522951453689 67.9949671702818 H 0.0 **** 0.06
8694 H 19.342611706984826 46.42601456451777 68.06530800289366 H 0.0 **** 0.06
8695 H 20.16745236899473 45.16274017115208 67.12109639156637 H 0.0 **** 0.06
8696 C 18.507960147660583 93.13990326128143 82.44875415272952 C 0.0 **** -0.24
8697 H 19.58745336452175 93.2503935479439 82.55542796614387 H 0.0 **** 0.06
8698 H 18.00497919043039 93.85549941441766 83.09857814677343 H 0.0 **** 0.06
8699 H 18.217925118301565 92.12669862593151 82.72971518802072 H 0.0 **** 0.06
8700 H 18.224494012326517 93.32555395048712 81.41296280663715 H 0.0 **** 0.06
8701 C 70.23249992539706 44.321742783306604 98.05986263808921 C 0.0 **** -0.24
8702 H 70.9695956755586 45.122429421744755 98.11852875092694 H 0.0 **** 0.06
8703 H 70.03130103809735 44.08942861492659 97.01352991492664 H 0.0 **** 0.06
8704 H 69.30933169469336 44.64094583409263 98.54410723091178 H 0.0 **** 0.06
8705 H 70.61848275790396 43.435168678984155 98.56270412498131 H 0.0 **** 0.06
8706 C 75.3809602271536 21.98428504654134 34.91527375247938 C 0.0 **** -0.24
8707 H 75.70779925118444 21.901215222804492 35.95169529313091 H 0.0 **** 0.06
8708 H 75.48106912402392 23.01904876352166 34.58564168447958 H 0.0 **** 0.06
8709 H 74.33830176174905 21.676396910076665 34.83697188196163 H 0.0 **** 0.06
8710 H 75.9987818137235 21.340968466268635 34.287928321977915 H 0.0 **** 0.06
8711 C 18.0858205500507 56.828200468162656 82.41357317796277 C 0.0 **** -0.24
8712 H 18.1201787886218 56.35847977239637 83.39670946582123 H 0.0 **** 0.06
8713 H 18.764016598584533 57.681559161505 82.3960218993609 H 0.0 **** 0.06
8714 H 17.070772166169036 57.165784448229026 82.20711802343303 H 0.0 **** 0.06
8715 H 18.39015266406966 56.106655226462586 81.65567518492273 H 0.0 **** 0.06
8716 C 89.56355496763092 29.590208345553492 58.630929468315664 C 0.0 **** -0.24
8717 H 89.85548078216141 29.090708675588246 57.707443501154465 H 0.0 **** 0.06
8718 H 88.84377227930227 30.37794302368974 58.405102075629124 H 0.0 **** 0.06
8719 H 90.4435806122344 30.027399669726094 59.10199054720825 H 0.0 **** 0.06
8720 H 89.11086624654453 28.866342534045316 59.30863897806716 H 0.0 **** 0.06
8721 C 83.6434655889419 60.29621297069681 22.513669577465322 C 0.0 **** -0.24
8722 H 84.18308431244779 59.41942448583894 22.873399509317778 H 0.0 **** 0.06
8723 H 83.65405412405761 60.30608913238836 21.423684109756323 H 0.0 **** 0.06
8724 H 84.12385628677796 61.19840794528829 22.889916657836608 H 0.0 **** 0.06
8725 H 82.61333125695089 60.25872632993951 22.866714792753754 H 0.0 **** 0.06
8726 C 71.5077858125409 9.522879324384377 100.97149144257915 C 0.0 **** -0.24
8727 H 71.35135682920608 10.168921715087563 100.10829326077186 H 0.0 **** 0.06
8728 H 71.98805673498015 8.59839889528287 100.65167631829539 H 0.0 **** 0.06
8729 H 70.54634425476462 9.293131598476307 101.43257622275163 H 0.0 **** 0.06
8730 H 72.14434354207663 10.032442645969937 101.69484021256778 H 0.0 **** 0.06
8731 C 70.85044892520276 88.30752945597655 9.262004171811299 C 0.0 **** -0.24
8732 H 71.70320726068036 88.96952701986052 9.407366900468872 H 0.0 **** 0.06
8733 H 70.22898660333624 88.68805283335627 8.449668237845572 H 0.0 **** 0.06
8734 H 70.2634697364904 88.26468372270011 10.179620462917597 H 0.0 **** 0.06
8735 H 71.20505898154468 87.30792885674094 9.010003505881741 H 0.0 **** 0.06
8736 C 0.8621075768871549 56.82671073055354 101.01387253880554 C 0.0 **** -0.24
8737 H 0.00805876847317677 56.24957974155876 101.36710245010144 H 0.0 **** 0.06
8738 H 1.464467850435014 57.14400606621621 101.86547090232665 H 0.0 **** 0.06
8739 H 0.5082339444359576 57.704685466605156 100.47191416581464 H 0.0 **** 0.06
8740 H 1.4681078100834952 56.21063337141254 100.34886770920059 H 0.0 **** 0.06
8741 C 59.98714355899483 82.43214910339373 51.41592919889109 C 0.0 **** -0.24
8742 H 60.63435677572633 81.63838075559744 51.042585066583314 H 0.0 **** 0.06
8743 H 60.245845361636356 83.3713045714467 50.926293228899965 H 0.0 **** 0.06
8744 H 60.12211070610795 82.53398061668398 52.4924797760259 H 0.0 **** 0.06
8745 H 58.94796021709877 82.18460565357728 51.20226564584283 H 0.0 **** 0.06
8746 C 96.60406267423721 62.26558224239813 75.09645672520386 C 0.0 **** -0.24
8747 H 96.2185866337272 62.34859582814442 76.11211359171341 H 0.0 **** 0.06
8748 H 96.26530567474896 63.11971895689967 74.50837658438735 H 0.0 **** 0.06
8749 H 96.2369060728698 61.34464953880373 74.64288315611003 H 0.0 **** 0.06
8750 H 97.69381387728191 62.25032183939155 75.12012981675917 H 0.0 **** 0.06
8751 C 34.09519098465688 76.99912867350261 84.51604008624759 C 0.0 **** -0.24
8752 H 33.20795841186407 77.28379735496989 83.94979004197268 H 0.0 **** 0.06
8753 H 33.851161711169425 76.96068870609068 85.57803212555132 H 0.0 **** 0.06
8754 H 34.882324928103316 77.7340227364731 84.3500557973208 H 0.0 **** 0.06
8755 H 34.43787641816061 76.01896448711275 84.18625870791959 H 0.0 **** 0.06
8756 C 62.62918165880259 63.97268898667411 70.34963121721512 C 0.0 **** -0.24
8757 H 62.99872658230293 62.95194103138575 70.45072603324826 H 0.0 **** 0.06
8758 H 61.71112281549167 64.08573377120979 70.92668566112434 H 0.0 **** 0.06
8759 H 62.42614961823062 64.18314195434223 69.2989730524422 H 0.0 **** 0.06
8760 H 63.38033906425395 64.66941840086398 70.72088396915171 H 0.0 **** 0.06
8761 C 99.68680772542947 26.45077403102519 115.11894811570536 C 0.0 **** -0.24
8762 H 99.0186182745621 27.030690225075517 115.75524521994777 H 0.0 **** 0.06
8763 H 100.69083989616047 26.45894102561337 115.54393600246847 H 0.0 **** 0.06
8764 H 99.71076463330459 26.889578184743613 114.12171448348408 H 0.0 **** 0.06
8765 H 99.32745009736712 25.423664760308526 115.05622170982176 H 0.0 **** 0.06
8766 C 42.26327855893908 81.29377393230672 20.51265742290107 C 0.0 **** -0.24
8767 H 41.81877773388348 80.30079253610953 20.454220576046183 H 0.0 **** 0.06
8768 H 42.15920145715822 81.7946500977597 19.549712959571394 H 0.0 **** 0.06
8769 H 43.32146705076701 81.20426851383525 20.763091046351263 H 0.0 **** 0.06
8770 H 41.75586842318583 81.87443145369784 21.28210506866364 H 0.0 **** 0.06
8771 C 6.560772525646456 14.546070409039952 5.0525732470813 C 0.0 **** -0.24
8772 H 7.358547980453054 15.283456254745413 5.1477544938798925 H 0.0 **** 0.06
8773 H 6.946813024474636 13.559775167324066 5.311905948900021 H 0.0 **** 0.06
8774 H 6.197823590502082 14.5359960291491 4.0254858780395 H 0.0 **** 0.06
8775 H 5.7442977030236335 14.80633819298897 5.724899366386092 H 0.0 **** 0.06
8776 C 8.929515847823463 40.67705956782555 30.00936548439455 C 0.0 **** -0.24
8777 H 8.373757144878944 41.55501199100439 29.677296397363534 H 0.0 **** 0.06
8778 H 8.670861805450905 40.45531507131264 31.045273536462105 H 0.0 **** 0.06
8779 H 9.998791897365663 40.875921400348716 29.93621717503447 H 0.0 **** 0.06
8780 H 8.67379992306002 39.82562688970867 29.378888117700285 H 0.0 **** 0.06
8781 C 64.01366300206439 109.26947002626765 84.08789334409883 C 0.0 **** -0.24
8782 H 63.60591397792132 110.03288186844456 83.42556937791252 H 0.0 **** 0.06
8783 H 63.36839404231279 108.39089866260366 84.07039132390327 H 0.0 **** 0.06
8784 H 64.0665987041389 109.66103889204253 85.1036632931067 H 0.0 **** 0.06
8785 H 65.0131859733784 108.99384814854494 83.7529824275833 H 0.0 **** 0.06
8786 C 17.579558021302265 56.59174511992751 78.47897539379858 C 0.0 **** -0.24
8787 H 18.523007250090448 57.116889480687206 78.62823664533471 H 0.0 **** 0.06
8788 H 17.236772373146533 56.18368595606003 79.42934828504826 H 0.0 **** 0.06
8789 H 17.725327267620983 55.78055312915336 77.76593765070646 H 0.0 **** 0.06
8790 H 16.835101516494035 57.286491898057875 78.09155143069307 H 0.0 **** 0.06
8791 C 62.620133158609356 107.51188547182832 94.66731034598163 C 0.0 **** -0.24
8792 H 63.49619929990781 107.54542381328818 94.01922833616709 H 0.0 **** 0.06
8793 H 62.142209965688856 106.53553676746077 94.58177879895433 H 0.0 **** 0.06
8794 H 61.916497410276186 108.28831791381899 94.36749148926083 H 0.0 **** 0.06
8795 H 62.92659513725852 107.67777951705182 95.69983354390808 H 0.0 **** 0.06
8796 C 8.091678440800607 0.945344848746771 22.238946775695695 C 0.0 **** -0.24
8797 H 8.969278457089349 0.33753721124838876 22.459811144361538 H 0.0 **** 0.06
8798 H 7.4607426639096435 0.4232601182442579 21.518790811290046 H 0.0 **** 0.06
8799 H 8.407586027740166 1.900428559674154 21.82027217813709 H 0.0 **** 0.06
8800 H 7.529638704999487 1.1177663512256117 23.157049793342566 H 0.0 **** 0.06
8801 C 95.49769200011457 85.2736051084033 0.8110185772608531 C 0.0 **** -0.24
8802 H 95.14151562035556 86.29612318364144 0.9329410495984121 H 0.0 **** 0.06
8803 H 94.78280955932729 84.7093397202687 0.210869661064919 H 0.0 **** 0.06
8804 H 95.60134956966579 84.80603128192035 1.7893787873762648 H 0.0 **** 0.06
8805 H 96.46543473338173 85.28395519547402 0.30892906389415487 H 0.0 **** 0.06
8806 C 7.274873277480268 31.841817173705437 47.99219812970409 C 0.0 **** -0.24
8807 H 6.206762331164697 31.82169964068703 47.77693032514776 H 0.0 **** 0.06
8808 H 7.834133320436138 31.769608379246677 47.05921523629411 H 0.0 **** 0.06
8809 H 7.5312213392336105 30.99951388513449 48.63603731797389 H 0.0 **** 0.06
8810 H 7.527196069326195 32.77422049932366 48.496716892635845 H 0.0 **** 0.06
8811 C 28.895291006612467 10.171063786848492 17.696164476441595 C 0.0 **** -0.24
8812 H 28.694342651741124 9.981637076492746 18.75162805750162 H 0.0 **** 0.06
8813 H 28.532468066361616 11.163443122249248 17.429922688164567 H 0.0 **** 0.06
8814 H 28.386007670761614 9.422009826251212 17.089832378918288 H 0.0 **** 0.06
8815 H 29.969666094378056 10.116084030414754 17.51611877002287 H 0.0 **** 0.06
8816 C 64.66001748476288 24.539000100544854 64.26107277332082 C 0.0 **** -0.24
8817 H 65.67314159053899 24.150599403980834 64.16132128411465 H 0.0 **** 0.06
8818 H 64.13235281523788 23.98215313769873 65.03702030178752 H 0.0 **** 0.06
8819 H 64.13335071380203 24.429790644708305 63.313229774891816 H 0.0 **** 0.06
8820 H 64.70088270387308 25.593262198079515 64.53513743249297 H 0.0 **** 0.06
8821 C 60.7793770138363 77.08754264648707 90.59972931411718 C 0.0 **** -0.24
8822 H 60.2760667296325 76.21555122245587 90.18268297211003 H 0.0 **** 0.06
8823 H 60.03800625058344 77.77611679768802 91.00506743560652 H 0.0 **** 0.06
8824 H 61.34869998575791 77.58759691452315 89.81488081411504 H 0.0 **** 0.06
8825 H 61.45574499449443 76.77089009903676 91.39328929803372 H 0.0 **** 0.06
8826 C 68.26930304255339 37.54598526981573 25.26539232619365 C 0.0 **** -0.24
8827 H 69.03558843151879 37.379149028700965 26.022585400682743 H 0.0 **** 0.06
8828 H 68.35050341027357 36.781498376305535 24.493127335406513 H 0.0 **** 0.06
8829 H 68.40902835307591 38.53019313707702 24.819304191943957 H 0.0 **** 0.06
8830 H 67.28471212621307 37.49237685357127 25.728168443561003 H 0.0 **** 0.06
8831 C 2.5958450419273333 101.55275432543826 113.3876896664103 C 0.0 **** -0.24
8832 H 1.914855093446647 100.70400737228701 113.44247294693778 H 0.0 **** 0.06
8833 H 2.0775868757100113 102.45572931911335 113.71093975405367 H 0.0 **** 0.06
8834 H 2.936739731819955 101.67827476445632 112.35962087455795 H 0.0 **** 0.06
8835 H 3.453021197816639 101.37373215512227 114.03596816008269 H 0.0 **** 0.06
8836 C 36.452555177000136 10.579299057204082 88.52115567495798 C 0.0 **** -0.24
8837 H 36.87222145625918 10.146781791822377 87.61309621943332 H 0.0 **** 0.06
8838 H 36.727773741382975 11.63199494957172 88.58188487908285 H 0.0 **** 0.06
8839 H 36.84438368699884 10.049482379984738 89.38983669552692 H 0.0 **** 0.06
8840 H 35.36681615936055 10.487527509221763 88.49955216802482 H 0.0 **** 0.06
8841 C 53.495597534282034 67.98927835561994 88.13511744563888 C 0.0 **** -0.24
8842 H 54.0911812142215 67.11551157257105 87.8697164571422 H 0.0 **** 0.06
8843 H 52.49742671853002 67.67086952934525 88.43684885933874 H 0.0 **** 0.06
8844 H 53.42024719005572 68.6513472236401 87.27183002355011 H 0.0 **** 0.06
8845 H 53.97330883270099 68.51849539583114 88.95858760606603 H 0.0 **** 0.06
8846 C 32.63355712817559 28.132076346991724 78.45960022432587 C 0.0 **** -0.24
8847 H 32.50277678448823 28.68823616468441 79.38758335631258 H 0.0 **** 0.06
8848 H 31.930522231036583 28.500653453330514 77.7126244455647 H 0.0 **** 0.06
8849 H 32.448107350517915 27.07285820965207 78.64245639629786 H 0.0 **** 0.06
8850 H 33.652840661859834 28.26546655103656 78.09768853063366 H 0.0 **** 0.06
8851 C 27.437260325032668 42.09180599557274 80.29435483535983 C 0.0 **** -0.24
8852 H 28.275140431266095 41.94667135786028 79.61197234177524 H 0.0 **** 0.06
8853 H 27.359706727225785 43.14832747639656 80.55465826605271 H 0.0 **** 0.06
8854 H 27.598373746969003 41.50543926580406 81.19857629495215 H 0.0 **** 0.06
8855 H 26.515153553127845 41.76914311360065 79.81079849133928 H 0.0 **** 0.06
8856 C 93.95770148319195 82.1708836790433 77.00199592613336 C 0.0 **** -0.24
8857 H 95.0124272052386 82.2717151215428 76.74546199984474 H 0.0 **** 0.06
8858 H 93.36450949304717 82.82303165653514 76.36019432090438 H 0.0 **** 0.06
8859 H 93.80918165276711 82.45261521245831 78.04375937674322 H 0.0 **** 0.06
8860 H 93.64673705841841 81.13634224904968 76.85723712186385 H 0.0 **** 0.06
8861 C 85.03649918639724 55.57726043992642 33.57424318961972 C 0.0 **** -0.24
8862 H 84.9663573802209 56.40219428881062 32.86553788143914 H 0.0 **** 0.06
8863 H 85.90264684009176 54.961103982969064 33.331827310986625 H 0.0 **** 0.06
8864 H 84.13197222350189 54.97109976648835 33.51551303048598 H 0.0 **** 0.06
8865 H 85.14361362030655 55.97378909506824 34.583555058814625 H 0.0 **** 0.06
8866 C 97.8922151552236 66.67422645228652 39.57562509243229 C 0.0 **** -0.24
8867 H 97.40558007521315 65.89958565053058 40.16870596624261 H 0.0 **** 0.06
8868 H 98.94034201382385 66.41324440061368 39.42835514373914 H 0.0 **** 0.06
8869 H 97.82431286270395 67.6274433291789 40.098931666412284 H 0.0 **** 0.06
8870 H 97.39702911266602 66.75481307058652 38.60797094817495 H 0.0 **** 0.06
8871 C 34.85350828481835 34.10575430233064 104.6055893515647 C 0.0 **** -0.24
8872 H 34.53303201421847 33.28347187905467 103.96496964529044 H 0.0 **** 0.06
8873 H 33.984214843318426 34.54084998631788 105.09943514506995 H 0.0 **** 0.06
8874 H 35.34741780663267 34.865760535212985 104.00024410337323 H 0.0 **** 0.06
8875 H 35.549220188631296 33.73035572676275 105.35655663940221 H 0.0 **** 0.06
8876 C 110.26290292818632 97.2752284427834 48.67970272852972 C 0.0 **** -0.24
8877 H 109.65511159299035 96.8060196992657 47.906605216258015 H 0.0 **** 0.06
8878 H 110.32263126181473 96.61354455794176 49.544903304174625 H 0.0 **** 0.06
8879 H 109.8074169938325 98.22021432757668 48.97556283130507 H 0.0 **** 0.06
8880 H 111.26510167460526 97.45964685554691 48.29314035074151 H 0.0 **** 0.06
8881 C 84.42446904397971 103.62621649186704 89.2066848032338 C 0.0 **** -0.24
8882 H 83.52795377274023 103.01590431114971 89.09602588186215 H 0.0 **** 0.06
8883 H 85.29785242756782 102.97882367120806 89.2869965807198 H 0.0 **** 0.06
8884 H 84.33983552943536 104.23602767317254 90.1061154293302 H 0.0 **** 0.06
8885 H 84.531394957965 104.27562364756056 88.3376737709167 H 0.0 **** 0.06
8886 C 90.16893137724486 86.92532636985723 38.43098618264989 C 0.0 **** -0.24
8887 H 89.6915003980601 86.10370448628635 38.96473995906737 H 0.0 **** 0.06
8888 H 90.22630960588691 86.68442864519406 37.36977274732507 H 0.0 **** 0.06
8889 H 91.1739243744868 87.07939812858518 38.82497220336995 H 0.0 **** 0.06
8890 H 89.58261560507918 87.83440725741013 38.56576650546714 H 0.0 **** 0.06
8891 C 32.70101728000766 30.96167772244837 72.77193699306318 C 0.0 **** -0.24
8892 H 32.99416480246042 30.02498237971487 72.29897159475502 H 0.0 **** 0.06
8893 H 33.0184682400737 31.79865264398761 72.14910804487883 H 0.0 **** 0.06
8894 H 33.174827430618194 31.037089908494217 73.75141235924954 H 0.0 **** 0.06
8895 H 31.618017150795595 30.98638463744564 72.88994637608545 H 0.0 **** 0.06
8896 C 12.049831487873092 52.788755860850586 91.07396487046145 C 0.0 **** -0.24
8897 H 10.978527001505 52.5861282553937 91.05429823932369 H 0.0 **** 0.06
8898 H 12.237551757937553 53.78902953013085 90.68393199881044 H 0.0 **** 0.06
8899 H 12.569827718779692 52.054736138654675 90.4581686793374 H 0.0 **** 0.06
8900 H 12.412236769392479 52.7243692567385 92.09961330137659 H 0.0 **** 0.06
8901 C 5.612612053528778 42.94781323864174 9.13197761660416 C 0.0 **** -0.24
8902 H 5.526959577107718 41.8657538789455 9.031011399802253 H 0.0 **** 0.06
8903 H 5.622560558836668 43.40584799963773 8.14239022143903 H 0.0 **** 0.06
8904 H 6.537436581445959 43.19214148774017 9.654764644149395 H 0.0 **** 0.06
8905 H 4.76349149672464 43.32750958824339 9.699744201025737 H 0.0 **** 0.06
8906 C 13.763122892476943 92.60909019335881 111.91364357117862 C 0.0 **** -0.24
8907 H 12.794613438143202 92.53587489131488 112.40888184961221 H 0.0 **** 0.06
8908 H 14.398962837073583 91.78493890140547 112.23780588688561 H 0.0 **** 0.06
8909 H 14.23403416684252 93.55676571121927 112.17520935471327 H 0.0 **** 0.06
8910 H 13.623577260786533 92.55850937520867 110.83378452287212 H 0.0 **** 0.06
8911 C 23.597087962760487 68.10146669566217 81.84611473261151 C 0.0 **** -0.24
8912 H 22.539911601679297 68.14765248780407 81.58220555326349 H 0.0 **** 0.06
8913 H 23.980649101178848 69.11242307848559 81.98542028469251 H 0.0 **** 0.06
8914 H 24.149107598082495 67.60933047419681 81.04599526047531 H 0.0 **** 0.06
8915 H 23.71569658295732 67.53638270729473 82.7705686475282 H 0.0 **** 0.06
8916 C 43.54937042646367 65.9233557692171 112.48167207487846 C 0.0 **** -0.24
8917 H 43.3874272190819 64.90905303569801 112.11679081777744 H 0.0 **** 0.06
8918 H 42.58919896554286 66.38573069608549 112.70788013734703 H 0.0 **** 0.06
8919 H 44.06308111802328 66.50586134718185 111.7167847945116 H 0.0 **** 0.06
8920 H 44.160101057381496 65.89123291101794 113.38413714615471 H 0.0 **** 0.06
8921 C 97.32115915893951 100.17191384350795 111.01712436246166 C 0.0 **** -0.24
8922 H 97.1305028168864 100.22258308494875 109.94505591272137 H 0.0 **** 0.06
8923 H 96.9556886404086 101.08140955934061 111.49444902821978 H 0.0 **** 0.06
8924 H 98.39317855535205 100.07534576810397 111.19047953214985 H 0.0 **** 0.06
8925 H 96.80540223865432 99.30833230843584 111.43651758077952 H 0.0 **** 0.06
8926 C 88.46628721289528 96.5228093176307 0.271281554325256 C 0.0 **** -0.24
8927 H 88.42702443023688 95.5095630730797 -0.1285977370691711 H 0.0 **** 0.06
8928 H 87.48058746672962 96.8071954441861 0.6384252027960713 H 0.0 **** 0.06
8929 H 88.77380953561038 97.21246338856457 -0.5157574135895686 H 0.0 **** 0.06
8930 H 89.18515237760647 96.56210440000265 1.089335160821463 H 0.0 **** 0.06
8931 C 2.3448168868746393 70.49952622608603 56.666411545232855 C 0.0 **** -0.24
8932 H 3.428992879770078 70.61615304437649 56.65451072316743 H 0.0 **** 0.06
8933 H 1.9910427034922975 70.50314875343929 57.69709318049062 H 0.0 **** 0.06
8934 H 2.076932580362808 69.55486811321828 56.193563798557086 H 0.0 **** 0.06
8935 H 1.885528725520203 71.32324367673502 56.12017176635907 H 0.0 **** 0.06
8936 C 14.579619957523846 4.311306238189644 53.165562563693726 C 0.0 **** -0.24
8937 H 14.923615024220538 3.8327482173718295 54.08161304646842 H 0.0 **** 0.06
8938 H 13.704999324217738 3.7831023384057687 52.78496120418665 H 0.0 **** 0.06
8939 H 15.37430965690939 4.282632362687508 52.419954713397175 H 0.0 **** 0.06
8940 H 14.316009434871376 5.348383328296833 53.374271917720236 H 0.0 **** 0.06
8941 C 76.47788972802581 77.91952928854363 26.32851684780286 C 0.0 **** -0.24
8942 H 77.29978715214418 77.62610656991617 26.981541115975688 H 0.0 **** 0.06
8943 H 76.87063170675441 78.47595272687147 25.477453005185197 H 0.0 **** 0.06
8944 H 75.78035019738729 78.54758754312036 26.88269768400764 H 0.0 **** 0.06
8945 H 75.96026380674368 77.0282185761524 25.973187964245426 H 0.0 **** 0.06
8946 C 39.42413671986111 113.37649785349507 91.28892632982212 C 0.0 **** -0.24
8947 H 39.44663433766772 112.43341860736865 90.74230178513724 H 0.0 **** 0.06
8948 H 39.18644610687082 114.1896592283957 90.60223368809363 H 0.0 **** 0.06
8949 H 40.398976357633444 113.5560487757298 91.74313350271731 H 0.0 **** 0.06
8950 H 38.66432901158777 113.32552897658955 92.0684719384721 H 0.0 **** 0.06
8951 C 0.16947161918055542 45.81080647420541 71.4817409461912 C 0.0 **** -0.24
8952 H 0.534198126297639 45.23027788406746 72.32927154180808 H 0.0 **** 0.06
8953 H -0.5059484353491968 45.19743841792514 70.88597480157856 H 0.0 **** 0.06
8954 H 1.0122117679194247 46.12615092477009 70.86762954908667 H 0.0 **** 0.06
8955 H -0.3633212586816086 46.68866927742084 71.84631682867982 H 0.0 **** 0.06
8956 C 108.78798289324509 85.74167514526852 69.93073607183197 C 0.0 **** -0.24
8957 H 108.5346579058749 85.00129533030312 69.17240032469732 H 0.0 **** 0.06
8958 H 108.50376055556694 85.36648246251718 70.91428023748102 H 0.0 **** 0.06
8959 H 108.251326441528 86.6688256548575 69.72656256743414 H 0.0 **** 0.06
8960 H 109.8608684355687 85.93119602412304 69.9094669115268 H 0.0 **** 0.06
8961 C 86.50751754646637 15.99682159421728 48.295153282040616 C 0.0 **** -0.24
8962 H 86.72090672460945 15.286479930464694 47.496222895514876 H 0.0 **** 0.06
8963 H 86.36410177312092 15.457769469095599 49.23141855773622 H 0.0 **** 0.06
8964 H 85.60133036970024 16.55380677586946 48.053727587994075 H 0.0 **** 0.06
8965 H 87.34260545995778 16.689232352341097 48.39838819313721 H 0.0 **** 0.06
8966 C 73.38003674258178 17.851583860482368 80.0955508426612 C 0.0 **** -0.24
8967 H 73.8845197139594 18.805330434773975 79.9376951359956 H 0.0 **** 0.06
8968 H 72.38313848087591 18.031534028637285 80.49983520665259 H 0.0 **** 0.06
8969 H 73.95435247190085 17.248867134250425 80.79871506526325 H 0.0 **** 0.06
8970 H 73.29706215581672 17.32279453162862 79.14617577858706 H 0.0 **** 0.06
8971 C 105.74201376170208 5.679114792471296 16.663385787119196 C 0.0 **** -0.24
8972 H 106.03866008721116 6.073905495753422 17.635229003440756 H 0.0 **** 0.06
8973 H 105.88225442027613 6.44712647355496 15.901508048298012 H 0.0 **** 0.06
8974 H 104.6927906248549 5.385396060633852 16.695418342963293 H 0.0 **** 0.06
8975 H 106.35434991446613 4.810031139942964 16.42138775377461 H 0.0 **** 0.06
8976 C 93.25624006028232 101.45164627267661 2.9247846264239 C 0.0 **** -0.24
8977 H 94.19786022647185 101.6606508744265 3.430590312656477 H 0.0 **** 0.06
8978 H 93.24266632052715 100.41168271442186 2.596523152287716 H 0.0 **** 0.06
8979 H 93.15522989463818 102.10738705036303 2.0600581174066406 H 0.0 **** 0.06
8980 H 92.42747686342292 101.6267458670753 3.6119052492221044 H 0.0 **** 0.06
8981 C 62.72227969691503 8.165759138429024 12.557777719923465 C 0.0 **** -0.24
8982 H 62.8205535238958 8.623374773631653 11.573699412831473 H 0.0 **** 0.06
8983 H 63.20147503525141 7.186106971482317 12.55282813144757 H 0.0 **** 0.06
8984 H 61.666649886687175 8.052724828557984 12.80192487775173 H 0.0 **** 0.06
8985 H 63.20265365565546 8.801103923373091 13.302495708797224 H 0.0 **** 0.06
8986 C 113.88768241001434 31.160877875640892 10.007528452105376 C 0.0 **** -0.24
8987 H 113.42677311308621 30.364254031759913 10.591804975183308 H 0.0 **** 0.06
8988 H 114.61035783208429 31.693258725685553 10.627310615256022 H 0.0 **** 0.06
8989 H 113.1181221918175 31.854014387046618 9.668144013250782 H 0.0 **** 0.06
8990 H 114.39565778805284 30.73040167758103 9.144423455657773 H 0.0 **** 0.06
8991 C 103.1640801081046 40.13487959398267 77.972109077353 C 0.0 **** -0.24
8992 H 104.07552381215666 40.698343749261035 77.77235801611377 H 0.0 **** 0.06
8993 H 103.35868947604021 39.070170020822445 77.84337803596335 H 0.0 **** 0.06
8994 H 102.38403888838232 40.44887610501204 77.27801550026649 H 0.0 **** 0.06
8995 H 102.83801812075114 40.323857642662624 78.99477267272428 H 0.0 **** 0.06
8996 C 104.02616533922767 24.22981033825363 73.46380032075632 C 0.0 **** -0.24
8997 H 104.58351088735856 23.292896554283118 73.4673340247777 H 0.0 **** 0.06
8998 H 103.10769249455544 24.10824739054101 74.03848465093711 H 0.0 **** 0.06
8999 H 103.77998084352575 24.50165186522196 72.43766665208585 H 0.0 **** 0.06
9000 H 104.63461100933404 25.015795320899883 73.91225599999393 H 0.0 **** 0.06
9001 C 14.559174665276856 112.76704218122205 86.34837502527955 C 0.0 **** -0.24
9002 H 13.789599792587808 112.72100772675996 87.11881275807318 H 0.0 **** 0.06
9003 H 14.206336148766468 112.2558115438888 85.45215226391753 H 0.0 **** 0.06
9004 H 15.46620951174583 112.2830255918605 86.71056102349255 H 0.0 **** 0.06
9005 H 14.77386116184573 113.80922715456093 86.11113426313449 H 0.0 **** 0.06
9006 C 36.27040426064954 106.88634663097284 92.47312290601894 C 0.0 **** -0.24
9007 H 37.007222754043994 106.47694964173408 91.7821796615373 H 0.0 **** 0.06
9008 H 35.38309889623483 107.19437826500018 91.91778173803459 H 0.0 **** 0.06
9009 H 36.694200458698134 107.74913937767755 92.98743161557863 H 0.0 **** 0.06
9010 H 35.996313733542564 106.12608806788614 93.20408680818252 H 0.0 **** 0.06
9011 C 92.53834302775195 95.53139843415448 49.7387408129983 C 0.0 **** -0.24
9012 H 93.4183458441079 96.11181709622502 50.01450908688027 H 0.0 **** 0.06
9013 H 92.61582619529679 95.22880190553573 48.69431432833335 H 0.0 **** 0.06
9014 H 91.64431604675909 96.13862796260386 49.8763306200417 H 0.0 **** 0.06
9015 H 92.47597381856863 94.64416903513018 50.369544341372006 H 0.0 **** 0.06
9016 C 97.95145708486314 56.09624509527412 71.38757330816156 C 0.0 **** -0.24
9017 H 98.57930868167259 55.47193371845526 70.75260276778906 H 0.0 **** 0.06
9018 H 97.82140265138773 55.613874961290016 72.35590993102582 H 0.0 **** 0.06
9019 H 96.97877400915846 56.23261813655825 70.91504289973963 H 0.0 **** 0.06
9020 H 98.42771478056198 57.06753664770624 71.5263478487191 H 0.0 **** 0.06
9021 C 83.1588533168871 2.9127932121869726 107.38862830019949 C 0.0 **** -0.24
9022 H 82.10204938597627 2.8180701346252874 107.63797734966275 H 0.0 **** 0.06
9023 H 83.26375446983852 3.128249684741398 106.32487303042342 H 0.0 **** 0.06
9024 H 83.67212516799768 1.9805652257186868 107.62260245126626 H 0.0 **** 0.06
9025 H 83.59748424373612 3.7242878036624543 107.96906036944549 H 0.0 **** 0.06
9026 C 69.41212835999403 58.56067165067918 56.08636001292766 C 0.0 **** -0.24
9027 H 70.40611372251908 58.973473312899074 56.260236070857026 H 0.0 **** 0.06
9028 H 69.16190958852877 57.866152073543105 56.889079241314484 H 0.0 **** 0.06
9029 H 69.39883504533566 58.03349276133858 55.132408403781064 H 0.0 **** 0.06
9030 H 68.68141518102334 59.3702537947197 56.06440395061265 H 0.0 **** 0.06
9031 C 32.634168232938606 97.942092482101 51.84940522153006 C 0.0 **** -0.24
9032 H 33.08613900056889 98.407583857122 52.72547496241859 H 0.0 **** 0.06
9033 H 31.69456000320008 98.44429053622073 51.61553869861842 H 0.0 **** 0.06
9034 H 32.4425795243086 96.88902560987319 52.05603268592529 H 0.0 **** 0.06
9035 H 33.313462857542675 98.02833404147347 51.001073212561124 H 0.0 **** 0.06
9036 C 0.40898576305437473 102.2613567483831 36.06843783344411 C 0.0 **** -0.24
9037 H 0.44100807711276957 102.91554099834818 35.19702718541154 H 0.0 **** 0.06
9038 H -0.6165352305682745 102.19049904399151 36.431022785225565 H 0.0 **** 0.06
9039 H 1.044871661293712 102.67151846120899 36.85315719375092 H 0.0 **** 0.06
9040 H 0.7667571663112653 101.27080146756964 35.79100367592477 H 0.0 **** 0.06
9041 C 7.686558941108387 113.3543775480764 114.13101155010608 C 0.0 **** -0.24
9042 H 6.6294647877326724 113.55560546405086 114.30415089079983 H 0.0 **** 0.06
9043 H 8.253843580927878 113.59266382027891 115.03104643123675 H 0.0 **** 0.06
9044 H 8.042731872476907 113.96818930444678 113.30433212414246 H 0.0 **** 0.06
9045 H 7.819629655972733 112.30050280345479 113.88569094705372 H 0.0 **** 0.06
9046 C 8.815675281130797 57.90910988465189 25.59912183076625 C 0.0 **** -0.24
9047 H 9.563873079559617 57.127463296922734 25.468237836506432 H 0.0 **** 0.06
9048 H 8.919638740120416 58.64679529515917 24.80345431352177 H 0.0 **** 0.06
9049 H 8.961600493346367 58.39212480661576 26.5649838018289 H 0.0 **** 0.06
9050 H 7.819878383528103 57.468242808223955 25.559125652198475 H 0.0 **** 0.06
9051 C 60.69069715124749 35.37299046724425 75.37478920502963 C 0.0 **** -0.24
9052 H 61.52673443726917 36.055489562545105 75.22543544165609 H 0.0 **** 0.06
9053 H 61.069954517847805 34.35904575514452 75.50614748690944 H 0.0 **** 0.06
9054 H 60.033763964194975 35.40602413997272 74.50600529005644 H 0.0 **** 0.06
9055 H 60.13347074492145 35.670485014310444 76.26353592748654 H 0.0 **** 0.06
9056 C 89.0768606329641 22.815591096557966 69.21312086291556 C 0.0 **** -0.24
9057 H 90.08250288750145 22.683617888131153 69.61271779900233 H 0.0 **** 0.06
9058 H 88.82297503566207 23.875937804598323 69.21171811394663 H 0.0 **** 0.06
9059 H 88.36517239409108 22.271648989845232 69.83348345802818 H 0.0 **** 0.06
9060 H 89.03722165628716 22.43191641636224 68.19407110627381 H 0.0 **** 0.06
9061 C 111.65973564458011 28.57347529047621 44.68903332966653 C 0.0 **** -0.24
9062 H 112.5428841176986 28.67273574264385 44.057458206263675 H 0.0 **** 0.06
9063 H 110.83848386584572 29.147339165370113 44.25919177796021 H 0.0 **** 0.06
9064 H 111.88328033559947 28.948328112889982 45.68821806820051 H 0.0 **** 0.06
9065 H 111.3750547713712 27.522442392255982 44.75097440319888 H 0.0 **** 0.06
9066 C 66.0080111389268 10.961684287222454 67.60526880397498 C 0.0 **** -0.24
9067 H 65.3067835940517 11.639648756976044 67.11866108138267 H 0.0 **** 0.06
9068 H 65.4719754059389 10.339627557953918 68.32190265003837 H 0.0 **** 0.06
9069 H 66.77180919068115 11.540123343339587 68.12511855800483 H 0.0 **** 0.06
9070 H 66.47988433915634 10.327824976799434 66.85428475544722 H 0.0 **** 0.06
9071 C 23.22094862570511 92.04807512311294 113.8220903330083 C 0.0 **** -0.24
9072 H 22.239354384762354 91.64115614477609 113.57889562647384 H 0.0 **** 0.06
9073 H 23.16259409517431 93.1365831238499 113.86289660554706 H 0.0 **** 0.06
9074 H 23.937573603971977 91.75105107722169 113.05660401624618 H 0.0 **** 0.06
9075 H 23.543449593889697 91.66458638218833 114.79037102963723 H 0.0 **** 0.06
9076 C 43.316501500110235 96.4265120425926 13.104528970685692 C 0.0 **** -0.24
9077 H 43.29498715814 96.48663800001157 14.193001299687097 H 0.0 **** 0.06
9078 H 43.91880986254765 97.24386167101096 12.707875229173027 H 0.0 **** 0.06
9079 H 42.30088556655856 96.50209046167342 12.716669311110849 H 0.0 **** 0.06
9080 H 43.75087097123745 95.4739555392728 12.802166276647085 H 0.0 **** 0.06
9081 C 105.51724508206343 75.05957362318037 39.072228034516115 C 0.0 **** -0.24
9082 H 104.8455194048768 74.20293875708461 39.012559660198065 H 0.0 **** 0.06
9083 H 105.46801155485454 75.49012618726817 40.07290959035316 H 0.0 **** 0.06
9084 H 105.21792696862235 75.80740804479072 38.33891826207815 H 0.0 **** 0.06
9085 H 106.53757363462176 74.73570399612697 38.86575502597856 H 0.0 **** 0.06
9086 C 115.08052568945234 16.0191587072959 47.844218887224784 C 0.0 **** -0.24
9087 H 114.27280032030133 16.703257996703883 47.58657809192325 H 0.0 **** 0.06
9088 H 116.03047722753942 16.4371043410452 47.510782990414015 H 0.0 **** 0.06
9089 H 114.9135578347582 15.059733864651946 47.354173280909215 H 0.0 **** 0.06
9090 H 115.10496223164544 15.87577556650956 48.9241902110549 H 0.0 **** 0.06
9091 C 2.7748044803046383 94.40099936538812 100.07634954614426 C 0.0 **** -0.24
9092 H 3.602699820621524 93.70015554280195 99.96672182785554 H 0.0 **** 0.06
9093 H 1.9558929460937406 94.10036771064583 99.42143078955294 H 0.0 **** 0.06
9094 H 3.1084100542394566 95.40246127147824 99.80598998716042 H 0.0 **** 0.06
9095 H 2.4327279598398093 94.39861766616494 101.11125724455528 H 0.0 **** 0.06
9096 C 75.65461679210676 12.97917379747625 5.800497349859384 C 0.0 **** -0.24
9097 H 76.65278641261307 13.227588743670424 6.159816614501452 H 0.0 **** 0.06
9098 H 75.72210273931009 12.168981363615927 5.073830380017796 H 0.0 **** 0.06
9099 H 75.20962245467055 13.8553791624297 5.328745110686555 H 0.0 **** 0.06
9100 H 75.03475883985985 12.664870553533035 6.64017976224973 H 0.0 **** 0.06
9101 C 13.177688124724625 23.355239714613475 69.93670509272712 C 0.0 **** -0.24
9102 H 13.16048444290118 22.302142220596636 70.219074923443 H 0.0 **** 0.06
9103 H 14.090339765353946 23.566621563672157 69.38017151957297 H 0.0 **** 0.06
9104 H 13.148487479258932 23.972249515654568 70.8356296062608 H 0.0 **** 0.06
9105 H 12.311527303449964 23.578377227780692 69.31468903259668 H 0.0 **** 0.06
9106 C 65.16051663379002 86.44846399997394 56.67904059860018 C 0.0 **** -0.24
9107 H 64.91535459195967 86.71853548280106 55.65216772509126 H 0.0 **** 0.06
9108 H 65.39175827940775 87.35060328309854 57.245680694466955 H 0.0 **** 0.06
9109 H 66.02568760954478 85.78458454916046 56.68208860060449 H 0.0 **** 0.06
9110 H 64.31046403640156 85.93993239344132 57.13348215631646 H 0.0 **** 0.06
9111 C 40.04433966842906 46.22791313658044 92.35275784597965 C 0.0 **** -0.24
9112 H 40.43176950757163 46.02135301450966 91.3552454483488 H 0.0 **** 0.06
9113 H 40.84033940575708 46.640265923815264 92.97302519038323 H 0.0 **** 0.06
9114 H 39.67716686335136 45.30416938586313 92.79859583125216 H 0.0 **** 0.06
9115 H 39.227494762393746 46.94732633679962 92.28344623980996 H 0.0 **** 0.06
9116 C 82.71118898499395 60.65865062156848 5.541341395120867 C 0.0 **** -0.24
9117 H 83.74396307032202 61.00066776573004 5.466863293862957 H 0.0 **** 0.06
9118 H 82.66770236207384 59.77136226157114 6.173141410217795 H 0.0 **** 0.06
9119 H 82.33684963573262 60.41580022566589 4.546740110308406 H 0.0 **** 0.06
9120 H 82.09787507505467 61.44696544048023 5.978080187685805 H 0.0 **** 0.06
9121 C 32.38834245538597 85.91440122817122 70.72383474136672 C 0.0 **** -0.24
9122 H 32.865197846826334 86.18743278674509 71.66464960573447 H 0.0 **** 0.06
9123 H 33.10556329623079 86.01667891557838 69.90906266204814 H 0.0 **** 0.06
9124 H 31.53805785575176 86.57297877808941 70.54412183689513 H 0.0 **** 0.06
9125 H 32.043034619994515 84.88229203346592 70.7767689181654 H 0.0 **** 0.06
9126 C 67.18112907951308 32.138127378777085 3.7180959654194794 C 0.0 **** -0.24
9127 H 67.35921801282245 33.1733428561613 4.0077702062327205 H 0.0 **** 0.06
9128 H 68.12166173031017 31.68191854642322 3.4069466718232775 H 0.0 **** 0.06
9129 H 66.47151593875594 32.10894779570401 2.891009676549146 H 0.0 **** 0.06
9130 H 66.77343354757977 31.588324769163876 4.566132157762894 H 0.0 **** 0.06
9131 C 53.52285247375377 97.77178877929308 68.02083538320497 C 0.0 **** -0.24
9132 H 53.90685976765474 97.5900432783082 69.02465505772864 H 0.0 **** 0.06
9133 H 54.08518865105597 97.17353208358614 67.30333837043028 H 0.0 **** 0.06
9134 H 53.632440150940255 98.82852937957864 67.77687469534877 H 0.0 **** 0.06
9135 H 52.469770625473046 97.49580048587481 67.9790385164383 H 0.0 **** 0.06
9136 C 26.979570112923767 92.58586925039546 88.54347148528595 C 0.0 **** -0.24
9137 H 26.422081491747036 91.66371193084785 88.37822832492952 H 0.0 **** 0.06
9138 H 27.33647986192034 92.97068762344458 87.58760000987894 H 0.0 **** 0.06
9139 H 27.829694038445496 92.38387037189406 89.19499180212736 H 0.0 **** 0.06
9140 H 26.328662189615557 93.32374744979538 89.01295485033395 H 0.0 **** 0.06
9141 C 109.37339478407287 61.71320751237758 45.32860954742736 C 0.0 **** -0.24
9142 H 108.59411673854896 62.29540336374947 44.83662205381398 H 0.0 **** 0.06
9143 H 109.4718703193636 62.038521397561254 46.36373869271961 H 0.0 **** 0.06
9144 H 110.32063099552516 61.861806833482234 44.80841643581948 H 0.0 **** 0.06
9145 H 109.10759280882806 60.656345228088014 45.303008831581934 H 0.0 **** 0.06
9146 C 37.77217067926 92.36433423400584 69.15387788109496 C 0.0 **** -0.24
9147 H 38.79294287060375 92.15436970076235 69.47194224966512 H 0.0 **** 0.06
9148 H 37.73670829123762 93.33634333324679 68.66225233748332 H 0.0 **** 0.06
9149 H 37.11531782031798 92.37212020641635 70.02305082149951 H 0.0 **** 0.06
9150 H 37.4434621966449 91.5928951034316 68.45767507097281 H 0.0 **** 0.06
9151 C 63.655094827796596 2.927661785953646 80.29730423193274 C 0.0 **** -0.24
9152 H 64.24485683340319 2.3506319248963194 79.58431030358037 H 0.0 **** 0.06
9153 H 63.44633799483348 3.91356725625387 79.88217901842654 H 0.0 **** 0.06
9154 H 64.21290705479086 3.0351925314760706 81.22701900782312 H 0.0 **** 0.06
9155 H 62.71554264487049 2.409557567395609 80.49410307606689 H 0.0 **** 0.06
9156 C 69.048294344771 92.1946312160369 81.12436088215551 C 0.0 **** -0.24
9157 H 68.34299964615383 92.10512979245206 81.95080862382702 H 0.0 **** 0.06
9158 H 70.04444878580188 92.39949793243852 81.51666552001623 H 0.0 **** 0.06
9159 H 68.73986511227636 93.00979698150317 80.47009325749028 H 0.0 **** 0.06
9160 H 69.06455538328072 91.26208279503015 80.55940863351833 H 0.0 **** 0.06
9161 C 32.77085937041355 112.1375088566173 113.10549703649835 C 0.0 **** -0.24
9162 H 32.708708834670475 112.80078931959636 112.2430793461739 H 0.0 **** 0.06
9163 H 33.71146360012845 112.31023741061989 113.62911381650511 H 0.0 **** 0.06
9164 H 32.72494958646276 111.10129115603144 112.77061328327773 H 0.0 **** 0.06
9165 H 31.937975286783413 112.33846920883062 113.77861660334761 H 0.0 **** 0.06
9166 C 25.636987378505495 52.99668461293015 92.19167472802968 C 0.0 **** -0.24
9167 H 25.156624592107164 52.38656697110736 91.42682309841447 H 0.0 **** 0.06
9168 H 24.89256893407746 53.3169284438365 92.92099980250518 H 0.0 **** 0.06
9169 H 26.090931240720153 53.87143880067134 91.72646722419921 H 0.0 **** 0.06
9170 H 26.407762012476198 52.41016352511002 92.69185714767579 H 0.0 **** 0.06
9171 C 92.85219908065645 75.37520559832856 1.4680239779396391 C 0.0 **** -0.24
9172 H 92.77676570582426 76.17857635632336 2.201564200935332 H 0.0 **** 0.06
9173 H 93.8910832614095 75.0534828487676 1.3895692435628177 H 0.0 **** 0.06
9174 H 92.50791213507836 75.73483712029983 0.49917438075473974 H 0.0 **** 0.06
9175 H 92.23442335853227 74.53568095599047 1.7855290146136902 H 0.0 **** 0.06
9176 C 111.22704553914734 81.4083152746775 91.71476950743374 C 0.0 **** -0.24
9177 H 111.56921470607463 81.65333563896317 92.72037542547321 H 0.0 **** 0.06
9178 H 111.82755315074098 80.58893526898385 91.31735903206572 H 0.0 **** 0.06
9179 H 111.33466524089273 82.28229511147714 91.07265722101272 H 0.0 **** 0.06
9180 H 110.18014699361191 81.10844336409755 91.74931195139754 H 0.0 **** 0.06
9181 C 108.01237356260819 30.76464131744325 89.47369229057108 C 0.0 **** -0.24
9182 H 107.25542796175472 31.524993198287575 89.66856762648558 H 0.0 **** 0.06
9183 H 108.83983864838567 30.888929334133934 90.17208471187166 H 0.0 **** 0.06
9184 H 108.37878432678562 30.869922815175926 88.45205978335503 H 0.0 **** 0.06
9185 H 107.57447363949765 29.774814599300782 89.60183159299879 H 0.0 **** 0.06
9186 C 87.54226683559426 71.363454231959 75.61217382920657 C 0.0 **** -0.24
9187 H 88.087396861753 71.02204574579025 76.49238260452898 H 0.0 **** 0.06
9188 H 86.93268273243353 72.22749517501455 75.87499389076305 H 0.0 **** 0.06
9189 H 86.89917553982087 70.56107987475855 75.24925648568714 H 0.0 **** 0.06
9190 H 88.2508030032954 71.64126814594277 74.83151325991702 H 0.0 **** 0.06
9191 C 75.37393071890148 34.372432736557414 76.33651797608584 C 0.0 **** -0.24
9192 H 75.6297548911931 34.691276073045 75.32672452753619 H 0.0 **** 0.06
9193 H 75.98044346316536 34.92446494960927 77.05622196757847 H 0.0 **** 0.06
9194 H 75.56876011350002 33.30531198812764 76.44066570092826 H 0.0 **** 0.06
9195 H 74.31878237047741 34.56916586081934 76.5232903980754 H 0.0 **** 0.06
9196 C 99.21134058079022 92.70032536107175 56.0480255389196 C 0.0 **** -0.24
9197 H 100.09524359224918 93.22873946623392 55.69204953672835 H 0.0 **** 0.06
9198 H 99.43721681503035 92.21474745505137 56.998217140786835 H 0.0 **** 0.06
9199 H 98.9177780514261 91.94795712712622 55.315909390594754 H 0.0 **** 0.06
9200 H 98.3956160226414 93.40959362583044 56.18784661819359 H 0.0 **** 0.06
9201 C 43.70958498899277 33.81903632337951 48.17913415212624 C 0.0 **** -0.24
9202 H 44.088294231529765 33.56821265167912 49.169928659106915 H 0.0 **** 0.06
9203 H 44.28965063651424 33.28953314739601 47.42347074598976 H 0.0 **** 0.06
9204 H 43.7986851716305 34.89382085251498 48.01864620099403 H 0.0 **** 0.06
9205 H 42.662353433781725 33.52601162663659 48.10608245782359 H 0.0 **** 0.06
9206 C 11.745161135937792 56.55990283124018 64.64176098376521 C 0.0 **** -0.24
9207 H 11.265064067081141 55.821049982009356 64.00032648094657 H 0.0 **** 0.06
9208 H 12.173359430416781 56.06213951573764 65.5127885188059 H 0.0 **** 0.06
9209 H 11.006377348274782 57.29257643429705 64.96809506105217 H 0.0 **** 0.06
9210 H 12.535671876205186 57.0649393243057 64.0871657772347 H 0.0 **** 0.06
9211 C 25.557585269551815 0.8091831020805493 76.38168498441854 C 0.0 **** -0.24
9212 H 24.849063600363777 1.3410232576951984 75.74624097430288 H 0.0 **** 0.06
9213 H 26.52524559898245 1.3088675106892875 76.34368618642674 H 0.0 **** 0.06
9214 H 25.663739450244172 -0.21637460945832565 76.02785784730352 H 0.0 **** 0.06
9215 H 25.190928062317305 0.8032102882972989 77.40858265935438 H 0.0 **** 0.06
9216 C 95.51240581244298 78.859665892171 60.0752634208265 C 0.0 **** -0.24
9217 H 94.78419931945007 78.25329920627408 60.61401913362005 H 0.0 **** 0.06
9218 H 96.45629906382817 78.86275392480471 60.62074575977408 H 0.0 **** 0.06
9219 H 95.13954664009043 79.8804493727423 59.98611108447443 H 0.0 **** 0.06
9220 H 95.66803280674998 78.44203431144959 59.08094957707027 H 0.0 **** 0.06
9221 C 13.762554909534714 84.68573584354351 87.48343531025657 C 0.0 **** -0.24
9222 H 12.856414446349149 84.42264516845435 86.938081571281 H 0.0 **** 0.06
9223 H 14.098974457721425 85.67507657444582 87.17291995167548 H 0.0 **** 0.06
9224 H 14.540175853285888 83.95345016204931 87.27104605814063 H 0.0 **** 0.06
9225 H 13.55229174940817 84.6935466845201 88.55375884161879 H 0.0 **** 0.06
9226 C 103.69512334797514 21.73952230528255 21.6887917797715 C 0.0 **** -0.24
9227 H 104.78159153187482 21.814731948733538 21.646032590009423 H 0.0 **** 0.06
9228 H 103.29578498483477 22.572158168798808 22.268498944716047 H 0.0 **** 0.06
9229 H 103.4135357269455 20.79881531106983 22.160568900980678 H 0.0 **** 0.06
9230 H 103.28940797964447 21.774419569354336 20.676931968392786 H 0.0 **** 0.06
9231 C 48.57799334904004 71.82462927877086 29.76232620293667 C 0.0 **** -0.24
9232 H 48.150046888642066 72.11937531815235 28.803971057276563 H 0.0 **** 0.06
9233 H 49.59614775190309 71.46500925957525 29.61024044879362 H 0.0 **** 0.06
9234 H 47.97331898559119 71.03082666464971 30.201088437828986 H 0.0 **** 0.06
9235 H 48.59302595123174 72.68380458721117 30.432808691112093 H 0.0 **** 0.06
9236 C 8.762582004577496 90.34048245506295 93.543062279801 C 0.0 **** -0.24
9237 H 9.452881797454722 89.74270550671184 92.94733841915797 H 0.0 **** 0.06
9238 H 8.974549038142271 91.39884729404292 93.39065551917571 H 0.0 **** 0.06
9239 H 8.884314732518789 90.09292924988856 94.59773831470312 H 0.0 **** 0.06
9240 H 7.738842719163671 90.12654365862241 93.23617789502029 H 0.0 **** 0.06
9241 C 29.230079893201946 42.65637641687175 40.97330238589211 C 0.0 **** -0.24
9242 H 29.724713011637803 43.41040321182709 40.36132394294157 H 0.0 **** 0.06
9243 H 29.372502384503733 41.67327242441206 40.524303103877315 H 0.0 **** 0.06
9244 H 28.163490810418878 42.878570497461624 41.03097917846466 H 0.0 **** 0.06
9245 H 29.657622605066777 42.66444258449991 41.97580481391529 H 0.0 **** 0.06
9246 C 53.30017796692678 50.09351592716649 3.310778658054261 C 0.0 **** -0.24
9247 H 52.43426786686692 49.805152182942464 3.9061776648231046 H 0.0 **** 0.06
9248 H 52.99796548198768 50.230778989687906 2.272587237452939 H 0.0 **** 0.06
9249 H 54.05764292645378 49.311481067965104 3.368738243288618 H 0.0 **** 0.06
9250 H 53.71177219969479 51.02682543274773 3.6959157252334194 H 0.0 **** 0.06
9251 C 81.30518172674579 4.63367772322141 101.48917681666691 C 0.0 **** -0.24
9252 H 80.65645214527675 3.7882002862294826 101.26338772176626 H 0.0 **** 0.06
9253 H 80.86401275126192 5.548023995948256 101.09294106824916 H 0.0 **** 0.06
9254 H 82.28202699895809 4.473395076865984 101.0323915499975 H 0.0 **** 0.06
9255 H 81.4203437646186 4.724573584023005 102.56912060937583 H 0.0 **** 0.06
9256 C 14.659793163086476 1.2274888386414258 1.1843605164509938 C 0.0 **** -0.24
9257 H 14.878013155013434 1.3774467338083785 0.12696199381257145 H 0.0 **** 0.06
9258 H 15.415888636188697 0.5756409887979927 1.6216567143957832 H 0.0 **** 0.06
9259 H 13.677251550732507 0.7668576291372222 1.2897828470898105 H 0.0 **** 0.06
9260 H 14.667273009174977 2.188527800959589 1.69723871684306 H 0.0 **** 0.06
9261 C 19.316435185090484 40.882399029595675 80.19718539763068 C 0.0 **** -0.24
9262 H 18.728331998971157 41.72218597685196 80.56696840986652 H 0.0 **** 0.06
9263 H 20.37713265919504 41.12506307449729 80.26172993008873 H 0.0 **** 0.06
9264 H 19.050804424830403 40.681273513218855 79.15933965137168 H 0.0 **** 0.06
9265 H 19.10759732432959 40.00017200310735 80.80308575420636 H 0.0 **** 0.06
9266 C 115.5256613970232 3.6271512769252183 26.938971722522467 C 0.0 **** -0.24
9267 H 116.26242169076345 3.7182934279253743 26.140848709232394 H 0.0 **** 0.06
9268 H 115.06177689042096 4.597894026161384 27.117400190032768 H 0.0 **** 0.06
9269 H 116.01855804727907 3.286737321487408 27.851048664410165 H 0.0 **** 0.06
9270 H 114.76253337124517 2.9065427964316086 26.64809392703537 H 0.0 **** 0.06
9271 C 88.8134203832661 8.873767659263223 48.68308839411762 C 0.0 **** -0.24
9272 H 89.40361227706319 8.270554240344651 49.37287608540994 H 0.0 **** 0.06
9273 H 89.03605335742762 9.929305803405143 48.842712372301435 H 0.0 **** 0.06
9274 H 87.75327096809079 8.694192784075781 48.859423296951206 H 0.0 **** 0.06
9275 H 89.0623326904491 8.600040897786556 47.65806631785799 H 0.0 **** 0.06
9276 C 46.292417604284765 106.24678226939972 29.539789466635426 C 0.0 **** -0.24
9277 H 45.91640250150098 107.23867121820194 29.28862630597071 H 0.0 **** 0.06
9278 H 45.64604788317064 105.79295243190143 30.291456058649374 H 0.0 **** 0.06
9279 H 47.30506306814033 106.33057282900256 29.933055554005833 H 0.0 **** 0.06
9280 H 46.30097076750218 105.62376417439975 28.644527295082 H 0.0 **** 0.06
9281 C 4.4028894711061355 83.763463544606 5.124389125397984 C 0.0 **** -0.24
9282 H 5.262757397653189 83.1433997689092 5.380156785503603 H 0.0 **** 0.06
9283 H 4.694924237451204 84.49843347708548 4.374465899850449 H 0.0 **** 0.06
9284 H 4.047223209070779 84.2762652664309 6.018391309028784 H 0.0 **** 0.06
9285 H 3.607136348200669 83.13392509769213 4.72664391090667 H 0.0 **** 0.06
9286 C 46.96581695837605 69.61590033543189 10.353785193572094 C 0.0 **** -0.24
9287 H 47.498852851729396 69.79204620775042 11.28723483834429 H 0.0 **** 0.06
9288 H 47.26326259465492 68.65048612580668 9.942712763830968 H 0.0 **** 0.06
9289 H 47.20909313244863 70.4048357660962 9.64237284348144 H 0.0 **** 0.06
9290 H 45.89173528793515 69.61490216313058 10.542469058792705 H 0.0 **** 0.06
9291 C 12.310021896922834 100.26431485995334 116.48522623019602 C 0.0 **** -0.24
9292 H 12.912694317634617 100.76975055533555 117.24016974225832 H 0.0 **** 0.06
9293 H 11.610278496368807 100.97499565441206 116.04454381182538 H 0.0 **** 0.06
9294 H 11.755256565455554 99.44850750888946 116.95075374780825 H 0.0 **** 0.06
9295 H 12.960980449312103 99.86415691826775 115.70893153265278 H 0.0 **** 0.06
9296 C 6.846168703355801 67.63066662175402 35.318217556255874 C 0.0 **** -0.24
9297 H 6.149386433495337 67.58147917930782 34.480975610683444 H 0.0 **** 0.06
9298 H 6.394126735284146 67.16555916463813 36.194223877521324 H 0.0 **** 0.06
9299 H 7.076932544536589 68.6726373472004 35.537370373269155 H 0.0 **** 0.06
9300 H 7.762892381149143 67.10210815177732 35.058740103288386 H 0.0 **** 0.06
9301 C 101.23406723092165 15.670442879260609 57.05488183766831 C 0.0 **** -0.24
9302 H 102.24881008966639 15.304116259300763 57.208653327188394 H 0.0 **** 0.06
9303 H 100.56721076548371 14.82784049314273 56.87445293727699 H 0.0 **** 0.06
9304 H 101.21634547490686 16.339279944713905 56.19366818432814 H 0.0 **** 0.06
9305 H 100.90499470171295 16.211337774484097 57.94234956585833 H 0.0 **** 0.06
9306 C 5.3548162570762 57.314147998930935 69.64140359786097 C 0.0 **** -0.24
9307 H 5.906273264560715 57.1808861814867 68.71093737342704 H 0.0 **** 0.06
9308 H 4.655304883339845 58.14375305651731 69.53265468393147 H 0.0 **** 0.06
9309 H 6.052989958189164 57.531537360776326 70.44951144514192 H 0.0 **** 0.06
9310 H 4.804008977555302 56.40254144906862 69.87150740361457 H 0.0 **** 0.06
9311 C 27.48827426865546 106.79567029719979 52.754538043050744 C 0.0 **** -0.24
9312 H 26.442667025167992 107.10192352521378 52.75049330662219 H 0.0 **** 0.06
9313 H 27.748284951736338 106.4064982661705 53.739938801486645 H 0.0 **** 0.06
9314 H 28.11970608751858 107.6535719422651 52.52398744897586 H 0.0 **** 0.06
9315 H 27.64174380574154 106.01921251256564 52.005262819479164 H 0.0 **** 0.06
9316 C 16.172646132460784 59.84327002752547 12.411369125041539 C 0.0 **** -0.24
9317 H 16.92065075181503 59.82917973149015 13.204066745129335 H 0.0 **** 0.06
9318 H 15.331151694153391 60.46554090308599 12.717997737061054 H 0.0 **** 0.06
9319 H 15.824621709148175 58.826824865808454 12.222882259883693 H 0.0 **** 0.06
9320 H 16.614612538461017 60.25092481998323 11.502633087521236 H 0.0 **** 0.06
9321 C 81.38754404262363 70.65175993376695 98.07366781900669 C 0.0 **** -0.24
9322 H 81.56809621134772 71.55988124543566 97.49983380649351 H 0.0 **** 0.06
9323 H 80.36060177907888 70.65195238702282 98.43897387296201 H 0.0 **** 0.06
9324 H 82.07410385367137 70.61294723202755 98.91939364130496 H 0.0 **** 0.06
9325 H 81.54642669155413 69.7822063255266 97.4361548596101 H 0.0 **** 0.06
9326 C 42.96300311217021 96.343837152084 94.22285717341646 C 0.0 **** -0.24
9327 H 43.63604753363458 96.6919611347306 93.43910090705296 H 0.0 **** 0.06
9328 H 41.94123990784175 96.32590989102295 93.84211894130036 H 0.0 **** 0.06
9329 H 43.02022624547379 97.01887632722577 95.07691607406969 H 0.0 **** 0.06
9330 H 43.2536495638339 95.34065882709137 94.53307934270782 H 0.0 **** 0.06
9331 C 100.38534683758667 115.19258839707942 72.54515615016783 C 0.0 **** -0.24
9332 H 99.47724373373686 115.78995013527455 72.47033226978027 H 0.0 **** 0.06
9333 H 101.03680067478828 115.41611655401505 71.699167297043 H 0.0 **** 0.06
9334 H 100.12658141671827 114.13417175148723 72.53522739303526 H 0.0 **** 0.06
9335 H 100.9022761355896 115.43222036436711 73.47438948311611 H 0.0 **** 0.06
9336 C 83.44952262819922 71.25571789765422 37.29780583781252 C 0.0 **** -0.24
9337 H 83.64349672680373 70.76484775863338 38.25065337431681 H 0.0 **** 0.06
9338 H 83.02174057642259 72.24200501581214 37.47812281417424 H 0.0 **** 0.06
9339 H 82.7497456827283 70.65666430229646 36.71553017073944 H 0.0 **** 0.06
9340 H 84.38396976076868 71.36147904389685 36.746054859117066 H 0.0 **** 0.06
9341 C 91.15868903778033 36.696477083294326 109.57432060513959 C 0.0 **** -0.24
9342 H 90.13733488115184 36.93447769359338 109.87141042267119 H 0.0 **** 0.06
9343 H 91.76475083608761 36.52143628498439 110.46391200105347 H 0.0 **** 0.06
9344 H 91.57603183850551 37.530983831062116 109.00936261045607 H 0.0 **** 0.06
9345 H 91.15789226479404 35.80173388117905 108.95248712035294 H 0.0 **** 0.06
9346 C 10.641891995054706 96.43005053451702 18.923718278820303 C 0.0 **** -0.24
9347 H 10.86823751009807 96.96357561895951 19.8471800754873 H 0.0 **** 0.06
9348 H 9.561622908575458 96.40506142367093 18.775653113366076 H 0.0 **** 0.06
9349 H 11.024125143834723 95.41245436526225 18.989670510379767 H 0.0 **** 0.06
9350 H 11.112069322823544 96.94218121689397 18.08388053082618 H 0.0 **** 0.06
9351 C 1.975918953947387 46.74630455897835 115.14132875652953 C 0.0 **** -0.24
9352 H 2.8479101545082877 46.21439437713457 115.52284797425632 H 0.0 **** 0.06
9353 H 1.0720911118141068 46.19164079382989 115.3960725159653 H 0.0 **** 0.06
9354 H 2.052583614569734 46.83850621231829 114.05771656633426 H 0.0 **** 0.06
9355 H 1.9317871528288162 47.73945878293392 115.58849991646429 H 0.0 **** 0.06
9356 C 32.46073629655683 79.51671214363978 94.844167670888 C 0.0 **** -0.24
9357 H 32.498490483744945 79.23087012507125 93.79271964068343 H 0.0 **** 0.06
9358 H 31.867207065881303 80.42616725020054 94.95195261943479 H 0.0 **** 0.06
9359 H 33.471601884989525 79.69672263596524 95.20872479267854 H 0.0 **** 0.06
9360 H 32.00274900638442 78.71357724414187 95.42266487744297 H 0.0 **** 0.06
9361 C 98.44030366994954 104.750819491713 77.75660851055864 C 0.0 **** -0.24
9362 H 99.04701213969534 104.45935761138242 76.8992872364791 H 0.0 **** 0.06
9363 H 97.70258879930611 105.49029778690002 77.44441208205066 H 0.0 **** 0.06
9364 H 99.08211189244142 105.17993265423428 78.52723369183349 H 0.0 **** 0.06
9365 H 97.93035072085434 103.87420226847908 78.15563128839395 H 0.0 **** 0.06
9366 C 18.66736211582061 93.17987078491018 11.313520508266734 C 0.0 **** -0.24
9367 H 18.101512287091552 93.03898571287476 12.233913510332641 H 0.0 **** 0.06
9368 H 18.854894720585435 92.21068154355231 10.849375264002148 H 0.0 **** 0.06
9369 H 19.617684821858887 93.66328764063178 11.542196963233067 H 0.0 **** 0.06
9370 H 18.096369621008137 93.80647174315942 10.627611013446682 H 0.0 **** 0.06
9371 C 116.72309851532245 28.920136321367465 108.7691745594839 C 0.0 **** -0.24
9372 H 116.88877356961754 28.66525316278694 109.81574624612378 H 0.0 **** 0.06
9373 H 115.94348057128889 29.679105280471163 108.69877579617835 H 0.0 **** 0.06
9374 H 116.41269980330858 28.028498599160287 108.22324246396374 H 0.0 **** 0.06
9375 H 117.64711918779582 29.306798352423527 108.33925801105352 H 0.0 **** 0.06
9376 C 6.789858308427171 92.3403190940688 65.29288572252818 C 0.0 **** -0.24
9377 H 7.599477254368665 92.36534170214625 66.02223954243561 H 0.0 **** 0.06
9378 H 5.91861361955695 91.85637728662255 65.73450093437953 H 0.0 **** 0.06
9379 H 7.109827076958979 91.78181762655058 64.41428117229987 H 0.0 **** 0.06
9380 H 6.531578173205546 93.35829440964258 65.00268658159047 H 0.0 **** 0.06
9381 C 85.38570061132566 3.428042208368799 46.180845168397894 C 0.0 **** -0.24
9382 H 85.10052318064967 4.107717809572369 45.377738148798755 H 0.0 **** 0.06
9383 H 84.92772992307675 3.756057969254025 47.11443582935275 H 0.0 **** 0.06
9384 H 86.47032456642759 3.4270604392555306 46.288203762649836 H 0.0 **** 0.06
9385 H 85.04324776184876 2.4211672693615487 45.94313770575242 H 0.0 **** 0.06
9386 C 116.3789701968791 0.6037328708313225 59.591072617157124 C 0.0 **** -0.24
9387 H 115.87701650054564 -0.24460948016388784 59.12437487162532 H 0.0 **** 0.06
9388 H 116.90772143448564 1.1773527558989372 58.828386935220806 H 0.0 **** 0.06
9389 H 117.09073387754131 0.24143060334523625 60.33317808371646 H 0.0 **** 0.06
9390 H 115.63962028465224 1.2403490826172856 60.07725003556186 H 0.0 **** 0.06
9391 C 32.23136054669345 54.7335158861801 42.14059652043325 C 0.0 **** -0.24
9392 H 33.053680977700026 55.16991701530952 41.572930091154255 H 0.0 **** 0.06
9393 H 32.3028743977454 55.046854612314576 43.1826304146679 H 0.0 **** 0.06
9394 H 32.2867937842301 53.64598961988651 42.083528173957696 H 0.0 **** 0.06
9395 H 31.28301774340474 55.07168300496602 41.72330180730078 H 0.0 **** 0.06
9396 C 27.821514092756793 77.70693184245047 39.923685288477856 C 0.0 **** -0.24
9397 H 27.896014839537344 78.79135505479567 39.841960712216405 H 0.0 **** 0.06
9398 H 28.755503014400517 77.30832218730231 40.32085156659076 H 0.0 **** 0.06
9399 H 27.63486779667462 77.28014930146546 38.93771274964848 H 0.0 **** 0.06
9400 H 27.000979093632843 77.44870868886099 40.59293716114644 H 0.0 **** 0.06
9401 C 93.06203630420805 94.91941621111039 38.440680776325415 C 0.0 **** -0.24
9402 H 93.66042204097349 95.56193637403757 39.08657342525962 H 0.0 **** 0.06
9403 H 92.91383466697408 93.95428165386849 38.92511294660768 H 0.0 **** 0.06
9404 H 93.58126068934195 94.7744664004774 37.493148415873975 H 0.0 **** 0.06
9405 H 92.09461999832752 95.38743654729322 38.25698087156396 H 0.0 **** 0.06
9406 C 88.75838044031485 36.84981466174264 4.018288871509455 C 0.0 **** -0.24
9407 H 88.58955524963895 37.892063437838544 3.7492880286276318 H 0.0 **** 0.06
9408 H 87.86317825953097 36.44798252356537 4.495114915666107 H 0.0 **** 0.06
9409 H 89.59858837539821 36.78487939007516 4.71013426103741 H 0.0 **** 0.06
9410 H 88.98193519382474 36.274095823642824 3.119987099979113 H 0.0 **** 0.06
9411 C 97.7822508461229 60.85484997206999 5.790671609620659 C 0.0 **** -0.24
9412 H 96.99528174702533 60.58251372894761 6.4927417440177635 H 0.0 **** 0.06
9413 H 98.68797154900909 61.10977585291513 6.341580686010417 H 0.0 **** 0.06
9414 H 97.46184876544515 61.71448469793494 5.201528464156553 H 0.0 **** 0.06
9415 H 97.98517308259767 60.01412706169565 5.127194010480736 H 0.0 **** 0.06
9416 C 51.94167342738439 106.65336242191066 70.15442346108944 C 0.0 **** -0.24
9417 H 52.33604126392848 106.0292395181419 70.95715296274452 H 0.0 **** 0.06
9418 H 52.12894832751792 107.70240329675565 70.38618063515935 H 0.0 **** 0.06
9419 H 50.869176565915666 106.48811803175334 70.06055313462466 H 0.0 **** 0.06
9420 H 52.43371741778287 106.39358058721402 69.21735299869391 H 0.0 **** 0.06
9421 C 102.97245402571826 47.026103560399136 114.52152660982102 C 0.0 **** -0.24
9422 H 102.0438685888843 46.6768935281773 114.07026571986614 H 0.0 **** 0.06
9423 H 103.70961663897117 47.20951399372072 113.73844680213554 H 0.0 **** 0.06
9424 H 103.3510074923382 46.2682412669526 115.20691477899774 H 0.0 **** 0.06
9425 H 102.78541174608796 47.950709715912666 115.06845408291991 H 0.0 **** 0.06
9426 C 13.726646519820719 47.69290636900456 26.393747310967626 C 0.0 **** -0.24
9427 H 14.72919105475944 48.00482975687339 26.68764569386866 H 0.0 **** 0.06
9428 H 13.671528480032777 46.604306432721955 26.393366721588563 H 0.0 **** 0.06
9429 H 13.509455622724829 48.06819098325286 25.393526056370206 H 0.0 **** 0.06
9430 H 13.000333229949149 48.09405329297442 27.099203192238804 H 0.0 **** 0.06
9431 C 10.794854191692977 30.145570506535535 46.66211155748363 C 0.0 **** -0.24
9432 H 9.916497660630952 29.645093235002065 47.06839496771386 H 0.0 **** 0.06
9433 H 10.973543493142465 29.79905118431182 45.644085293367226 H 0.0 **** 0.06
9434 H 11.662662785211204 29.91672068879737 47.28165254921552 H 0.0 **** 0.06
9435 H 10.628209127870885 31.223136197961082 46.655210922217776 H 0.0 **** 0.06
9436 C 12.811148736578758 78.11572275147222 85.38736562653793 C 0.0 **** -0.24
9437 H 12.488507153142024 77.0888622168356 85.5629044796961 H 0.0 **** 0.06
9438 H 11.960798306034803 78.71085394187008 85.05296312238187 H 0.0 **** 0.06
9439 H 13.585704503710929 78.12554282704974 84.62043479420566 H 0.0 **** 0.06
9440 H 13.208109366340722 78.53446008743805 86.3118326273306 H 0.0 **** 0.06
9441 C 18.807519852300288 19.191416845239953 83.83775059606762 C 0.0 **** -0.24
9442 H 18.76086441982133 18.313347974229163 84.482607438347 H 0.0 **** 0.06
9443 H 17.82209860664048 19.379038113194593 83.40931939644636 H 0.0 **** 0.06
9444 H 19.524806007100665 19.016206075959047 83.03734845182177 H 0.0 **** 0.06
9445 H 19.11969994132417 20.055855823798538 84.42303066660321 H 0.0 **** 0.06
9446 C 107.52673868488154 111.49010278616936 36.92023071777041 C 0.0 **** -0.24
9447 H 106.95633561230443 112.41764848986111 36.8757420326275 H 0.0 **** 0.06
9448 H 107.7617525614375 111.1609054885505 35.90704529494579 H 0.0 **** 0.06
9449 H 106.9363821015632 110.72487958484714 37.423789548712705 H 0.0 **** 0.06
9450 H 108.4520525041649 111.65839912656634 37.471060667634816 H 0.0 **** 0.06
9451 C 114.00516791660701 111.98398742346427 88.42925394091651 C 0.0 **** -0.24
9452 H 113.53813458828614 112.74706925320845 87.80745663045559 H 0.0 **** 0.06
9453 H 114.37442360102877 112.44078603859785 89.34738259345227 H 0.0 **** 0.06
9454 H 114.83612838042632 111.53203129429258 87.88693450119399 H 0.0 **** 0.06
9455 H 113.27073656098729 111.21639973413501 88.67466936292362 H 0.0 **** 0.06
9456 C 36.14314010336258 18.789554450026003 6.20019659181321 C 0.0 **** -0.24
9457 H 36.35614682635128 19.847493569609743 6.046681365722179 H 0.0 **** 0.06
9458 H 36.56432377279879 18.211143092129166 5.377131188709086 H 0.0 **** 0.06
9459 H 35.06451003138665 18.638021688854042 6.2372227507105436 H 0.0 **** 0.06
9460 H 36.58864756826836 18.46242294422883 7.140089185473585 H 0.0 **** 0.06
9461 C 107.33514584452226 10.410954880382633 38.36119558972915 C 0.0 **** -0.24
9462 H 108.13761947613304 10.627956974918504 37.65585584658909 H 0.0 **** 0.06
9463 H 106.37364134404595 10.620735730113807 37.89242692174827 H 0.0 **** 0.06
9464 H 107.45259918397309 11.035934670145252 39.247065220150326 H 0.0 **** 0.06
9465 H 107.37887805063329 9.360318842963324 38.64913726542777 H 0.0 **** 0.06
9466 C 80.22356616059477 14.67779036566931 63.11967214982974 C 0.0 **** -0.24
9467 H 80.1479434891217 13.840898351934332 63.813767187253006 H 0.0 **** 0.06
9468 H 80.82945876096534 15.465696339329746 63.56627740678971 H 0.0 **** 0.06
9469 H 79.22662251580078 15.062720117468668 62.90557775700859 H 0.0 **** 0.06
9470 H 80.68934484725088 14.339839903689825 62.193481177567435 H 0.0 **** 0.06
9471 C 91.33527431334443 30.95434601448352 46.75647729090855 C 0.0 **** -0.24
9472 H 92.12833662701286 31.370290963261823 47.37923489155894 H 0.0 **** 0.06
9473 H 91.4712984544052 29.876807794491597 46.66650641450062 H 0.0 **** 0.06
9474 H 91.37585046419332 31.409661007946283 45.766701645786355 H 0.0 **** 0.06
9475 H 90.36837509026935 31.16314709051379 47.21346188946953 H 0.0 **** 0.06
9476 C 107.35962212349233 53.07425273774171 2.454162387016794 C 0.0 **** -0.24
9477 H 106.73639565760169 52.197989405291835 2.2788191654674392 H 0.0 **** 0.06
9478 H 107.80888300016093 53.00722951325318 3.4447033918801253 H 0.0 **** 0.06
9479 H 106.74777115769217 53.97363635736587 2.392385322657674 H 0.0 **** 0.06
9480 H 108.14653361062693 53.11763836929234 1.7000111651418308 H 0.0 **** 0.06
9481 C 80.04211580841991 108.96399765499622 2.683526575489914 C 0.0 **** -0.24
9482 H 81.12054504526475 108.86525983262557 2.5595137096764375 H 0.0 **** 0.06
9483 H 79.83251954780113 109.54985028397243 3.5796382816680303 H 0.0 **** 0.06
9484 H 79.59612086148212 107.97478755878598 2.7828584053438483 H 0.0 **** 0.06
9485 H 79.62117672805505 109.46789244607085 1.8135643431817208 H 0.0 **** 0.06
9486 C 31.901221416611676 72.95649975329366 50.818156275262254 C 0.0 **** -0.24
9487 H 31.946166126025744 72.4450614593326 49.85566320051004 H 0.0 **** 0.06
9488 H 32.893691666272424 72.9648267100668 51.27076265618524 H 0.0 **** 0.06
9489 H 31.206946258903123 72.43191673456863 51.47439450388356 H 0.0 **** 0.06
9490 H 31.559450792349267 73.98000691336674 50.67019414363767 H 0.0 **** 0.06
9491 C 110.7056879610254 89.74790615402793 56.858079471898805 C 0.0 **** -0.24
9492 H 111.09882694879501 88.73248965873188 56.915994010352165 H 0.0 **** 0.06
9493 H 109.93805360571233 89.79491831356299 56.08499255655954 H 0.0 **** 0.06
9494 H 111.51330926133409 90.43663169135283 56.61199030148077 H 0.0 **** 0.06
9495 H 110.271729529178 90.02407684433132 57.819311400677975 H 0.0 **** 0.06
9496 C 58.460833322502936 107.10986191809448 42.559401039772986 C 0.0 **** -0.24
9497 H 58.82001740944122 106.26831460109676 43.15069267423819 H 0.0 **** 0.06
9498 H 59.001981384766 108.01183576885626 42.8450755171761 H 0.0 **** 0.06
9499 H 57.39525660292594 107.25242784107976 42.74007532161803 H 0.0 **** 0.06
9500 H 58.62526738103861 106.9063354121794 41.50151998011712 H 0.0 **** 0.06
9501 C 17.969466657894515 63.89449999032206 10.174635608752137 C 0.0 **** -0.24
9502 H 18.708343553362738 64.64465373943443 10.457712085904973 H 0.0 **** 0.06
9503 H 18.477472759732592 62.96791302031528 9.905672036064576 H 0.0 **** 0.06
9504 H 17.394028042769605 64.25439239924106 9.322052013152067 H 0.0 **** 0.06
9505 H 17.299681245241715 63.710444712351546 11.014482085891387 H 0.0 **** 0.06
9506 C 4.799467192878538 75.19495457816478 68.28985324847505 C 0.0 **** -0.24
9507 H 5.090860381149923 75.79673064627295 69.15104461707477 H 0.0 **** 0.06
9508 H 3.7900314115493927 75.46860730851668 67.98078266518579 H 0.0 **** 0.06
9509 H 4.824172015409772 74.13952635405678 68.55892541952531 H 0.0 **** 0.06
9510 H 5.492795472054183 75.37740256714241 67.46859104015468 H 0.0 **** 0.06
9511 C 68.88521543709925 62.18325524584418 15.616323440679793 C 0.0 **** -0.24
9512 H 69.67899300856413 61.748642043276874 15.008826533765301 H 0.0 **** 0.06
9513 H 69.15342545513099 62.11021778980253 16.67045573912145 H 0.0 **** 0.06
9514 H 67.95543912237395 61.64378389330102 15.439008571125811 H 0.0 **** 0.06
9515 H 68.75470047473488 63.231317864622184 15.346515052217455 H 0.0 **** 0.06
9516 C 73.13250987146694 26.601840380040457 18.3242019092402 C 0.0 **** -0.24
9517 H 72.53506625572047 26.96420264372462 17.48645982805155 H 0.0 **** 0.06
9518 H 72.51881175285865 26.58289487040245 19.225362110619983 H 0.0 **** 0.06
9519 H 73.98391558022891 27.264134534738716 18.476886759864584 H 0.0 **** 0.06
9520 H 73.48955719465278 25.594523909807826 18.106051045758306 H 0.0 **** 0.06
9521 C 90.06782156646486 1.5629017051228118 50.106668246560645 C 0.0 **** -0.24
9522 H 90.25849379135985 2.1218576161764986 49.19003832701229 H 0.0 **** 0.06
9523 H 90.21720509912888 0.4992781331280298 49.91969913263017 H 0.0 **** 0.06
9524 H 89.04159879564045 1.7354843761850418 50.428947527482585 H 0.0 **** 0.06
9525 H 90.75494577986578 1.8955713188580035 50.88402025798492 H 0.0 **** 0.06
9526 C 33.41971821910812 83.05942900604015 86.82645585256085 C 0.0 **** -0.24
9527 H 34.36184191577877 82.51253562826952 86.87928216003942 H 0.0 **** 0.06
9528 H 33.14779832542597 83.2125688972962 85.78170049505133 H 0.0 **** 0.06
9529 H 33.53279738048171 84.02520127759306 87.31927732522107 H 0.0 **** 0.06
9530 H 32.6389776770164 82.48467541932786 87.32532309370583 H 0.0 **** 0.06
9531 C 102.34493855389343 32.218630068257625 25.140208564165334 C 0.0 **** -0.24
9532 H 101.26885176559463 32.05526985540402 25.200744854584457 H 0.0 **** 0.06
9533 H 102.54562250052444 33.286867358718894 25.05728076106317 H 0.0 **** 0.06
9534 H 102.74188330607973 31.703443985206263 24.26516504381067 H 0.0 **** 0.06
9535 H 102.82244694511627 31.827439870476837 26.03933203174671 H 0.0 **** 0.06
9536 C 79.29310550695371 33.588462492326585 71.62668959549762 C 0.0 **** -0.24
9537 H 79.4080057681808 32.610082963611546 72.09172433700405 H 0.0 **** 0.06
9538 H 78.92585090780577 33.46539068527403 70.60699530137336 H 0.0 **** 0.06
9539 H 80.2565665527379 34.09785882153909 71.60716628876878 H 0.0 **** 0.06
9540 H 78.57920509627067 34.18111145942703 72.19995432747012 H 0.0 **** 0.06
9541 C 47.94481467812258 5.91791249311899 7.077479443623744 C 0.0 **** -0.24
9542 H 47.26208562936024 5.476330418067079 7.804745828199827 H 0.0 **** 0.06
9543 H 48.96266545534266 5.87813185549399 7.463991017976269 H 0.0 **** 0.06
9544 H 47.663425873949535 6.955803388902666 6.900014567290086 H 0.0 **** 0.06
9545 H 47.888283972435886 5.360544152978974 6.141849791958762 H 0.0 **** 0.06
9546 C 83.32353905034472 58.959945166430636 92.07114368558402 C 0.0 **** -0.24
9547 H 82.86297910027295 58.225441014742806 91.41085653658976 H 0.0 **** 0.06
9548 H 82.84295053037818 58.92146539705252 93.0483872116724 H 0.0 **** 0.06
9549 H 83.20467070872436 59.95629451573651 91.64545805777078 H 0.0 **** 0.06
9550 H 84.3854083614475 58.7359834867517 92.17838529443398 H 0.0 **** 0.06
9551 C 37.98923650795899 99.0947243477842 57.79729436031254 C 0.0 **** -0.24
9552 H 38.10105461699686 98.95746269818804 56.72131156666085 H 0.0 **** 0.06
9553 H 37.970948281287974 98.12123150271984 58.28748738230545 H 0.0 **** 0.06
9554 H 37.05843191616614 99.62245716281612 58.00214499164732 H 0.0 **** 0.06
9555 H 38.82858515098772 99.67716221065098 58.17763496271022 H 0.0 **** 0.06
9556 C 60.19842623718938 89.34582371566489 16.845189130802794 C 0.0 **** -0.24
9557 H 61.27855707048985 89.20282401473037 16.819744780097153 H 0.0 **** 0.06
9558 H 59.76674159585963 89.02045262810901 15.897475501456285 H 0.0 **** 0.06
9559 H 59.97625065835456 90.4010107608508 17.00301578644047 H 0.0 **** 0.06
9560 H 59.77315106563668 88.75833955733074 17.65838425490955 H 0.0 **** 0.06
9561 C 56.47764153051123 84.9800416545684 27.850582545400272 C 0.0 **** -0.24
9562 H 56.34316533851514 84.98379260342637 28.932828876949607 H 0.0 **** 0.06
9563 H 56.89312898347931 84.02134066630293 27.53945301909482 H 0.0 **** 0.06
9564 H 57.16005516790832 85.78217207288779 27.56704513056558 H 0.0 **** 0.06
9565 H 55.5135844823168 85.13431188859934 27.364873036535165 H 0.0 **** 0.06
9566 C 53.88772014637806 102.47764325261164 31.740017816520208 C 0.0 **** -0.24
9567 H 54.68527926716026 103.10942143333116 31.347259842956248 H 0.0 **** 0.06
9568 H 54.24399075168371 101.95413680084712 32.62768625959035 H 0.0 **** 0.06
9569 H 53.59442963242457 101.75076523017961 30.982756987270307 H 0.0 **** 0.06
9570 H 53.02995808708354 103.09735684562904 32.00211951529144 H 0.0 **** 0.06
9571 C 79.617187152457 101.69002994386625 40.238242192687636 C 0.0 **** -0.24
9572 H 79.54082375220318 102.77689156561547 40.25462416167762 H 0.0 **** 0.06
9573 H 78.63232059903282 101.25917357971144 40.05752517711996 H 0.0 **** 0.06
9574 H 79.99757381286855 101.33857116016196 41.19696302498743 H 0.0 **** 0.06
9575 H 80.29890041847531 101.38558224171038 39.44337324073535 H 0.0 **** 0.06
9576 C 36.96426962210373 71.05634832103371 88.61617545817629 C 0.0 **** -0.24
9577 H 37.23610566008139 72.03020625736684 89.02512403270956 H 0.0 **** 0.06
9578 H 37.04270410163582 71.08498169719519 87.52950802471287 H 0.0 **** 0.06
9579 H 35.94055602183752 70.81527112308268 88.90109679337414 H 0.0 **** 0.06
9580 H 37.6398387768555 70.29666578446373 89.00966718648414 H 0.0 **** 0.06
9581 C 38.54354720840681 23.22348354362572 85.73466532591166 C 0.0 **** -0.24
9582 H 37.645248586150515 23.831843123263724 85.8403307339498 H 0.0 **** 0.06
9583 H 39.421055626728446 23.870995184598996 85.72820875239248 H 0.0 **** 0.06
9584 H 38.49600657288278 22.66577064988104 84.79967005983528 H 0.0 **** 0.06
9585 H 38.611150611763605 22.527474074053828 86.56952785414916 H 0.0 **** 0.06
9586 C 86.23517064105008 21.97742869260323 3.836056067735285 C 0.0 **** -0.24
9587 H 85.43966331143784 22.66437260438398 4.126431979983067 H 0.0 **** 0.06
9588 H 85.99729705812618 21.53639597029099 2.8674517468227805 H 0.0 **** 0.06
9589 H 86.32492357682318 21.18906348996718 4.582518797155274 H 0.0 **** 0.06
9590 H 87.17711911174123 22.521916558376674 3.7663923326308577 H 0.0 **** 0.06
9591 C 48.754844803248176 25.23025750702493 60.31513922436028 C 0.0 **** -0.24
9592 H 49.561143718439524 25.836718473282076 59.90328477408053 H 0.0 **** 0.06
9593 H 48.975548740123315 24.994028767737518 61.35659627142957 H 0.0 **** 0.06
9594 H 48.66598286006695 24.307078449148207 59.74374718484705 H 0.0 **** 0.06
9595 H 47.81814871894031 25.784828560298763 60.25922539609303 H 0.0 **** 0.06
9596 C 20.42161406385017 66.59751156457753 83.25477817959109 C 0.0 **** -0.24
9597 H 20.380803096714658 67.40156314695452 83.98954241365456 H 0.0 **** 0.06
9598 H 21.024831669410617 65.77808680018319 83.6451709558821 H 0.0 **** 0.06
9599 H 20.868062228485712 66.97193059250156 82.33248077026093 H 0.0 **** 0.06
9600 H 19.412075943558563 66.24085878574846 83.05024321891185 H 0.0 **** 0.06
9601 C 32.44331582190654 59.19793675181547 15.955871879405265 C 0.0 **** -0.24
9602 H 32.908734325960666 60.18359313058486 15.983406042214966 H 0.0 **** 0.06
9603 H 31.849826996094606 59.051426354789875 16.85819148423903 H 0.0 **** 0.06
9604 H 33.217289434263705 58.4322739424829 15.900624362843615 H 0.0 **** 0.06
9605 H 31.798436321657675 59.12577444719651 15.079474676092445 H 0.0 **** 0.06
9606 C 62.55388295997711 46.30737447755833 83.5597846403133 C 0.0 **** -0.24
9607 H 63.49075980829095 45.850733452463345 83.87923216711872 H 0.0 **** 0.06
9608 H 62.71750391593917 47.364600576649366 83.35029206311069 H 0.0 **** 0.06
9609 H 61.81042310527754 46.20370861059867 84.35067265316079 H 0.0 **** 0.06
9610 H 62.19635863873507 45.80914873314862 82.65870394104451 H 0.0 **** 0.06
9611 C 78.80974244635019 105.36603407401623 41.699439255301314 C 0.0 **** -0.24
9612 H 77.79175517154619 105.43205020899333 41.31642006461712 H 0.0 **** 0.06
9613 H 79.04446210670181 106.26639531983167 42.267391969556996 H 0.0 **** 0.06
9614 H 79.50642351811524 105.26972862266399 40.86623774680291 H 0.0 **** 0.06
9615 H 78.89743427817137 104.49377740694402 42.347782111518626 H 0.0 **** 0.06
9616 C 65.11688491841142 36.64505182750952 21.408591892986152 C 0.0 **** -0.24
9617 H 64.43633922603988 36.68321577871333 22.2584877514129 H 0.0 **** 0.06
9618 H 66.13804840393686 36.80661587596675 21.75338768702261 H 0.0 **** 0.06
9619 H 64.84802969160398 37.42083267845837 20.692698173422855 H 0.0 **** 0.06
9620 H 65.044711375904 35.66820539871766 20.929999141232855 H 0.0 **** 0.06
9621 C 39.112825943540656 45.966518517449074 3.4139608554392 C 0.0 **** -0.24
9622 H 39.226587473550794 44.91780346998526 3.688780866662114 H 0.0 **** 0.06
9623 H 38.15946642568758 46.33891884111138 3.790194364658987 H 0.0 **** 0.06
9624 H 39.13646928153887 46.06256534543468 2.328057537903419 H 0.0 **** 0.06
9625 H 39.926574706470966 46.54651870501377 3.8485602818815323 H 0.0 **** 0.06
9626 C 15.370542697571913 101.77414822926664 28.663196256915114 C 0.0 **** -0.24
9627 H 15.719135140418839 102.78884638874422 28.46932012405972 H 0.0 **** 0.06
9628 H 16.227239589533532 101.12615036181253 28.850618811631534 H 0.0 **** 0.06
9629 H 14.82013205201045 101.40763067733837 27.79620604914055 H 0.0 **** 0.06
9630 H 14.716701865087831 101.7753701812758 29.534922474276186 H 0.0 **** 0.06
9631 C 82.34862569989815 30.25365588660599 44.19010097578587 C 0.0 **** -0.24
9632 H 83.17139047162146 30.82180112789326 43.75727766266855 H 0.0 **** 0.06
9633 H 82.74654057937315 29.48160209714615 44.849221376876514 H 0.0 **** 0.06
9634 H 81.77020187476458 29.786057207568064 43.39208316113686 H 0.0 **** 0.06
9635 H 81.70449637515222 30.923022494415193 44.76086866850627 H 0.0 **** 0.06
9636 C 14.667913837342525 12.06279738658398 13.9754791108777 C 0.0 **** -0.24
9637 H 13.831731222965772 12.525056090359755 14.500795714842695 H 0.0 **** 0.06
9638 H 15.435701681764641 12.812338206230265 13.78507606573578 H 0.0 **** 0.06
9639 H 14.319238047597338 11.64999733061694 13.02924170478775 H 0.0 **** 0.06
9640 H 15.083363829374036 11.263025619906188 14.589591856294987 H 0.0 **** 0.06
9641 C 44.313717831219776 96.02255135059067 115.29745253908872 C 0.0 **** -0.24
9642 H 43.30300652478468 96.34533451715214 115.04750523791552 H 0.0 **** 0.06
9643 H 44.53820290258088 96.29933071270639 116.32738582965166 H 0.0 **** 0.06
9644 H 45.02559075764407 96.50502932830514 114.62687818252981 H 0.0 **** 0.06
9645 H 44.386951584637046 94.94087829453142 115.18642479718525 H 0.0 **** 0.06
9646 C 73.31808470824691 72.37948279179895 76.80712412686415 C 0.0 **** -0.24
9647 H 72.79313247763386 71.75392220190804 77.52872307392704 H 0.0 **** 0.06
9648 H 74.38699301412629 72.3574301636643 77.01660828549154 H 0.0 **** 0.06
9649 H 72.95354403781579 73.40433424664616 76.88128338548262 H 0.0 **** 0.06
9650 H 73.1376218449094 72.00234720379945 75.80050609251734 H 0.0 **** 0.06
9651 C 27.80324061925205 23.718879763227136 57.8824050933707 C 0.0 **** -0.24
9652 H 28.004167050132082 22.721044362038917 58.271450085856635 H 0.0 **** 0.06
9653 H 26.75437423389036 23.791722722474688 57.59376827812972 H 0.0 **** 0.06
9654 H 28.434128071068756 23.90287421814039 57.01253725596805 H 0.0 **** 0.06
9655 H 28.021149838631402 24.459735449024684 58.65236058099901 H 0.0 **** 0.06
9656 C 92.15210878517934 69.67801062314024 68.70569480819984 C 0.0 **** -0.24
9657 H 91.66149000869689 70.29202625145874 67.9500751794734 H 0.0 **** 0.06
9658 H 91.76291305458156 68.66112241415098 68.65625786038365 H 0.0 **** 0.06
9659 H 91.95636348505874 70.09509049948173 69.69371410958593 H 0.0 **** 0.06
9660 H 93.22640994245629 69.66663540073512 68.52336116354635 H 0.0 **** 0.06
9661 C 4.333536771086999 5.235183306276227 65.08628073738646 C 0.0 **** -0.24
9662 H 4.4215808905350915 6.243308695542879 65.49314371812977 H 0.0 **** 0.06
9663 H 4.518872970012856 5.260918401540835 64.01179888738898 H 0.0 **** 0.06
9664 H 3.3292353661376772 4.854773311009296 65.27317615763377 H 0.0 **** 0.06
9665 H 5.063836466738508 4.585294278493635 65.5660394697851 H 0.0 **** 0.06
9666 C 33.68312991246257 13.882638556453273 95.30726345302546 C 0.0 **** -0.24
9667 H 33.991379370774716 12.906530629831028 95.6824908256817 H 0.0 **** 0.06
9668 H 33.78611018325305 14.624349670308828 96.09946460518705 H 0.0 **** 0.06
9669 H 32.643329695076844 13.836260414741435 94.98420538096687 H 0.0 **** 0.06
9670 H 34.313548014942185 14.162413339149044 94.46365868194636 H 0.0 **** 0.06
9671 C 60.905055822398204 7.82839360805735 97.28589723406964 C 0.0 **** -0.24
9672 H 59.86484923624459 7.589050883775453 97.50328903474735 H 0.0 **** 0.06
9673 H 61.52705824315675 6.954371922453687 97.48134313205634 H 0.0 **** 0.06
9674 H 61.22759559290275 8.65513574235197 97.91835313937568 H 0.0 **** 0.06
9675 H 60.999892518190585 8.11434778256216 96.23701623998355 H 0.0 **** 0.06
9676 C 38.14799040811121 87.96019595426807 15.370126339663784 C 0.0 **** -0.24
9677 H 38.568762998894215 87.57437179268604 16.298312242349624 H 0.0 **** 0.06
9678 H 38.758806775335415 88.78843552102356 15.01050769677795 H 0.0 **** 0.06
9679 H 37.13097188713124 88.30948838619886 15.550426459094894 H 0.0 **** 0.06
9680 H 38.13186556242465 87.16772688261415 14.621326115705955 H 0.0 **** 0.06
9681 C 38.04700023052169 76.96771734492427 25.405159011910655 C 0.0 **** -0.24
9682 H 37.39397346077077 76.10717410607677 25.553915173625825 H 0.0 **** 0.06
9683 H 38.37174139509525 77.34813036787077 26.374137923271036 H 0.0 **** 0.06
9684 H 37.50396329408968 77.74818487863467 24.872350164155534 H 0.0 **** 0.06
9685 H 38.9170891756081 76.66690933301876 24.82203749624432 H 0.0 **** 0.06
9686 C 69.71864288003644 62.176322674054745 49.90922291423537 C 0.0 **** -0.24
9687 H 68.73302083534543 62.60849268303684 49.73773178834185 H 0.0 **** 0.06
9688 H 70.41226063259137 62.962901339876595 50.20801789145943 H 0.0 **** 0.06
9689 H 70.07365196005003 61.70641926148227 48.99212025339199 H 0.0 **** 0.06
9690 H 69.65521082800501 61.428428080142 50.69997764800762 H 0.0 **** 0.06
9691 C 93.91328010696506 77.56131129513906 97.45460526070354 C 0.0 **** -0.24
9692 H 93.11709645529533 77.10526269671482 98.04404338721699 H 0.0 **** 0.06
9693 H 93.48586007332122 78.03359733612007 96.56973633689324 H 0.0 **** 0.06
9694 H 94.62382813185909 76.7925900288846 97.14893198604611 H 0.0 **** 0.06
9695 H 94.4260576168611 78.31184401953965 98.05605003196655 H 0.0 **** 0.06
9696 C 49.602978927983 113.43045359414646 92.75209691627231 C 0.0 **** -0.24
9697 H 49.19249229636259 114.13896153963924 92.03296469302452 H 0.0 **** 0.06
9698 H 50.349094438395014 113.93087059934129 93.36970233789864 H 0.0 **** 0.06
9699 H 50.06886729077178 112.60131630203628 92.21839341944758 H 0.0 **** 0.06
9700 H 48.801407756667885 113.05069695493228 93.38487844407112 H 0.0 **** 0.06
9701 C 108.27282133378884 0.5921309437304121 99.75678394169407 C 0.0 **** -0.24
9702 H 107.69585184139203 1.3051551238218746 99.16871027951075 H 0.0 **** 0.06
9703 H 107.61468493260605 0.08638310376353786 100.46292878085981 H 0.0 **** 0.06
9704 H 109.05555061354283 1.120074978491946 100.3023634417477 H 0.0 **** 0.06
9705 H 108.72689606461188 -0.14301381653275058 99.09207926594303 H 0.0 **** 0.06
9706 C 23.02107508100741 76.5665435860738 60.2624415490342 C 0.0 **** -0.24
9707 H 22.019199955503495 76.65402493270068 60.68459116715665 H 0.0 **** 0.06
9708 H 23.718517513828345 77.15256421413983 60.86175857309107 H 0.0 **** 0.06
9709 H 23.017121744625655 76.94087665319427 59.23851815452415 H 0.0 **** 0.06
9710 H 23.327216705916413 75.52086332142557 60.266047311331896 H 0.0 **** 0.06
9711 C 4.941233157990837 51.768255714909905 101.94174607870536 C 0.0 **** -0.24
9712 H 5.73058325240504 51.3822802008902 101.29582629756501 H 0.0 **** 0.06
9713 H 4.345550936433256 50.938869172396736 102.3238974327576 H 0.0 **** 0.06
9714 H 4.301983755802098 52.44110808537653 101.3701825635321 H 0.0 **** 0.06
9715 H 5.3865761123360585 52.311625643447655 102.77479692185315 H 0.0 **** 0.06
9716 C 67.5339094783086 28.63401974871053 97.7581739601132 C 0.0 **** -0.24
9717 H 66.75187824287994 28.49505882735842 98.50546175287934 H 0.0 **** 0.06
9718 H 68.51020581375244 28.51250464624505 98.22729495122934 H 0.0 **** 0.06
9719 H 67.4558696376616 29.634200527750153 97.3327869394439 H 0.0 **** 0.06
9720 H 67.41463062894528 27.892418237859147 96.9674326623607 H 0.0 **** 0.06
9721 C 57.65475739959652 32.594660685858315 95.06765326944566 C 0.0 **** -0.24
9722 H 58.08786611632587 32.20379731556113 95.98847281746743 H 0.0 **** 0.06
9723 H 58.359008350258705 33.28208745788365 94.59830261350709 H 0.0 **** 0.06
9724 H 56.72880850944779 33.12275786090481 95.29705910594447 H 0.0 **** 0.06
9725 H 57.443819456506674 31.769463251977726 94.38747730431515 H 0.0 **** 0.06
9726 C 51.80332198201694 104.58403514199415 9.353637234133842 C 0.0 **** -0.24
9727 H 51.17625167092302 103.69249181363014 9.307513430287159 H 0.0 **** 0.06
9728 H 52.49839366931383 104.58250585393844 8.51401828772282 H 0.0 **** 0.06
9729 H 52.36220448527382 104.58636865147506 10.288770804108765 H 0.0 **** 0.06
9730 H 51.173904818052094 105.47240761487308 9.30325532032856 H 0.0 **** 0.06
9731 C 15.216750830097869 100.50589945048628 23.396791421660396 C 0.0 **** -0.24
9732 H 15.616734624618147 100.00324417030518 24.276718992643282 H 0.0 **** 0.06
9733 H 14.245058427466017 100.93893015204841 23.635188729856907 H 0.0 **** 0.06
9734 H 15.10456904144607 99.78533716816602 22.585760414962863 H 0.0 **** 0.06
9735 H 15.901562014132317 101.2959676349092 23.087463253984936 H 0.0 **** 0.06
9736 C 25.104720905996338 66.94384485070506 111.81458376282984 C 0.0 **** -0.24
9737 H 25.329994382407982 66.360389824712 112.70695701638077 H 0.0 **** 0.06
9738 H 24.340362950224545 66.43272740537208 111.22901322588797 H 0.0 **** 0.06
9739 H 26.008509885692206 67.05502746833474 111.21478469607501 H 0.0 **** 0.06
9740 H 24.74005632180863 67.92864831177516 112.10759550756752 H 0.0 **** 0.06
9741 C 81.77765362666756 28.99535023699292 38.20458367091757 C 0.0 **** -0.24
9742 H 80.95594659279331 29.430273472916497 37.63550959786721 H 0.0 **** 0.06
9743 H 81.37687122663857 28.407343779459552 39.03054303258497 H 0.0 **** 0.06
9744 H 82.40860358776902 29.791973737310855 38.5975659285896 H 0.0 **** 0.06
9745 H 82.36901936509514 28.35194382164326 37.55331898001597 H 0.0 **** 0.06
9746 C 25.383597053019685 109.5086651282869 110.98950052930107 C 0.0 **** -0.24
9747 H 24.319849201628955 109.43393531441293 111.21647621375885 H 0.0 **** 0.06
9748 H 25.938278710400994 109.6956095282028 111.9092369266931 H 0.0 **** 0.06
9749 H 25.54860599756273 110.3306490472655 110.29272404668939 H 0.0 **** 0.06
9750 H 25.72543625716959 108.57625789369513 110.54093321575053 H 0.0 **** 0.06
9751 C 14.841642908025591 52.526425389076266 9.0692439474401 C 0.0 **** -0.24
9752 H 14.055202795951601 52.1512957120824 9.724631373330766 H 0.0 **** 0.06
9753 H 15.21022294885222 53.47847127427225 9.452017234533827 H 0.0 **** 0.06
9754 H 14.440865834825189 52.66790705652664 8.066121038444209 H 0.0 **** 0.06
9755 H 15.659976794701464 51.80720672806967 9.035700974637933 H 0.0 **** 0.06
9756 C 27.4667839684667 72.6839874419108 94.08530560176419 C 0.0 **** -0.24
9757 H 28.17643841521098 72.8626210243385 93.2772421160264 H 0.0 **** 0.06
9758 H 27.439809770963507 71.61924646281656 94.31658463908622 H 0.0 **** 0.06
9759 H 26.475157817283247 73.0149019133836 93.77674256057162 H 0.0 **** 0.06
9760 H 27.77547646749923 73.24110790794813 94.97018340481767 H 0.0 **** 0.06
9761 C 54.44131490418636 54.88810660655669 29.976955998744586 C 0.0 **** -0.24
9762 H 54.92230110765139 55.75103151582561 29.517967159597504 H 0.0 **** 0.06
9763 H 55.122795253059856 54.037705054871175 29.955445586004657 H 0.0 **** 0.06
9764 H 53.534137401517555 54.6416699061428 29.42529496828888 H 0.0 **** 0.06
9765 H 54.18554262493002 55.12265840721023 31.01143127764783 H 0.0 **** 0.06
9766 C 1.982425875324708 115.99227937799895 95.82906007714087 C 0.0 **** -0.24
9767 H 2.3991277853249215 116.97471752041001 96.05025627856631 H 0.0 **** 0.06
9768 H 1.4819781765666988 115.60191609688388 96.71566800707683 H 0.0 **** 0.06
9769 H 2.7842670961832994 115.31428116378115 95.53558080776926 H 0.0 **** 0.06
9770 H 1.2633188564794011 116.07786580967696 95.01380607983629 H 0.0 **** 0.06
9771 C 4.724516978171593 61.20457334196459 28.995543048350036 C 0.0 **** -0.24
9772 H 5.614371792586368 61.536932795263965 29.5305585566163 H 0.0 **** 0.06
9773 H 4.97538833134179 61.02457360553973 27.94939118503445 H 0.0 **** 0.06
9774 H 3.9556238497945344 61.97460736134923 29.057380932228064 H 0.0 **** 0.06
9775 H 4.353796159416561 60.28351511718199 29.443851768563206 H 0.0 **** 0.06
9776 C 75.59566233449385 0.8451197608239767 72.146490711295 C 0.0 **** -0.24
9777 H 74.52213367827906 1.0245798620781983 72.08509623961575 H 0.0 **** 0.06
9778 H 76.08298230298539 1.252129430357428 71.26053171671214 H 0.0 **** 0.06
9779 H 75.7818447375825 -0.22736340968548063 72.20436069146717 H 0.0 **** 0.06
9780 H 75.99473247812094 1.3319721581051738 73.03659225366769 H 0.0 **** 0.06
9781 C 29.90317825038582 16.570904821931634 84.2323061613505 C 0.0 **** -0.24
9782 H 30.333499419040294 17.53511942704219 84.50401903898467 H 0.0 **** 0.06
9783 H 30.4647474751226 16.14398067454121 83.40106987058738 H 0.0 **** 0.06
9784 H 28.863276174990226 16.708813631910346 83.93634029561267 H 0.0 **** 0.06
9785 H 29.951235761136942 15.897762758539358 85.0886707118413 H 0.0 **** 0.06
9786 C 104.33389400696728 6.061270928768323 13.182494663407041 C 0.0 **** -0.24
9787 H 103.65019532413348 6.873805352940607 12.93616581950107 H 0.0 **** 0.06
9788 H 105.1748022306144 6.455713168251137 13.753320968511645 H 0.0 **** 0.06
9789 H 104.69979926161864 5.602696117236519 12.264401861833065 H 0.0 **** 0.06
9790 H 103.80818799869769 5.313997717069128 13.777825637828315 H 0.0 **** 0.06
9791 C 68.22582075177445 24.965092923555773 45.000812244424765 C 0.0 **** -0.24
9792 H 68.74267738017852 24.067609237668705 45.34337367350366 H 0.0 **** 0.06
9793 H 68.9305283181285 25.794838824832027 44.95763952269422 H 0.0 **** 0.06
9794 H 67.42112783097036 25.206352810284272 45.69477470030597 H 0.0 **** 0.06
9795 H 67.8100861663637 24.788576353989527 44.009116937017524 H 0.0 **** 0.06
9796 C 36.25866629434594 109.21508793524414 41.01510953931748 C 0.0 **** -0.24
9797 H 35.91547042075766 110.04337324206814 41.635404660493606 H 0.0 **** 0.06
9798 H 35.71510099050627 109.21964309164238 40.0691544110357 H 0.0 **** 0.06
9799 H 36.07679729193782 108.2729310875153 41.53295329151973 H 0.0 **** 0.06
9800 H 37.32539484922961 109.32364337844163 40.821582239546615 H 0.0 **** 0.06
9801 C 74.73897509799849 68.72693359539355 29.20466718063335 C 0.0 **** -0.24
9802 H 75.19412009928564 69.6629697478414 28.880850382470136 H 0.0 **** 0.06
9803 H 74.81498988114956 68.64125077540106 30.288392764950373 H 0.0 **** 0.06
9804 H 75.25670303170185 67.88994675516096 28.73563753464125 H 0.0 **** 0.06
9805 H 73.6879019969725 68.71418198198685 28.910813676944635 H 0.0 **** 0.06
9806 C 84.17183450515745 62.97777946007875 51.052345800262486 C 0.0 **** -0.24
9807 H 84.12738613295608 63.998956170880206 50.673975051547664 H 0.0 **** 0.06
9808 H 84.94593319541539 62.90721345615103 51.81680812871532 H 0.0 **** 0.06
9809 H 84.40507055351486 62.29641439076258 50.23484320853599 H 0.0 **** 0.06
9810 H 83.20802662712632 62.70913298412421 51.485704146829754 H 0.0 **** 0.06
9811 C 5.073788047295773 81.60662787037418 45.69973408112742 C 0.0 **** -0.24
9812 H 4.018672547017635 81.38423690816708 45.85763430446957 H 0.0 **** 0.06
9813 H 5.301773765220954 82.59339808562984 46.10472434433996 H 0.0 **** 0.06
9814 H 5.292343204841812 81.5924261171011 44.6322600150188 H 0.0 **** 0.06
9815 H 5.683224913030047 80.85701383481663 46.205286765814265 H 0.0 **** 0.06
9816 C 95.1129785273753 30.316660551760606 73.54956862399243 C 0.0 **** -0.24
9817 H 95.88977993654206 30.329499349831842 74.31341261313662 H 0.0 **** 0.06
9818 H 95.43618485105384 29.697589233454245 72.71337829149402 H 0.0 **** 0.06
9819 H 94.92928350144061 31.333142719320257 73.20065725767864 H 0.0 **** 0.06
9820 H 94.19510364949048 29.906709465962535 73.97239820296551 H 0.0 **** 0.06
9821 C 27.0268691849161 93.98111350375379 59.95759361032418 C 0.0 **** -0.24
9822 H 28.02785644451106 94.31503667809193 60.22967769778592 H 0.0 **** 0.06
9823 H 26.332568872870084 94.22009019219303 60.76287378358387 H 0.0 **** 0.06
9824 H 27.036518089331302 92.9032850191276 59.793683101742545 H 0.0 **** 0.06
9825 H 26.711832998114133 94.48520921191368 59.0433541741491 H 0.0 **** 0.06
9826 C 113.06468959001245 20.0352211904831 59.972014078137555 C 0.0 **** -0.24
9827 H 112.41872653577718 19.273797261446873 60.41026441289848 H 0.0 **** 0.06
9828 H 112.47538591315322 20.92351693901567 59.743565330981376 H 0.0 **** 0.06
9829 H 113.51026164724271 19.64938986270448 59.05519311121902 H 0.0 **** 0.06
9830 H 113.85309850894326 20.293434581043357 60.678144459844184 H 0.0 **** 0.06
9831 C 68.27665452805567 37.36666215730726 52.65872175429111 C 0.0 **** -0.24
9832 H 67.4354326277973 38.02828935518913 52.86451074960625 H 0.0 **** 0.06
9833 H 69.08917161658093 37.93859635552613 52.21206960450955 H 0.0 **** 0.06
9834 H 67.96131242928226 36.58293313189226 51.9690144147622 H 0.0 **** 0.06
9835 H 68.61848908109275 36.91439288624956 53.58970167416773 H 0.0 **** 0.06
9836 C 78.81848448789702 24.863770338461762 18.365717120531258 C 0.0 **** -0.24
9837 H 78.8138465749769 24.494402765095458 17.34075566428828 H 0.0 **** 0.06
9838 H 78.87889410748028 25.953085470544295 18.358415456505895 H 0.0 **** 0.06
9839 H 79.67896015380089 24.456674015485675 18.895838921289908 H 0.0 **** 0.06
9840 H 77.9020057888479 24.554648630620193 18.86805317681626 H 0.0 **** 0.06
9841 C 94.70225581590992 107.72625214423391 78.7851540048288 C 0.0 **** -0.24
9842 H 94.61933657825898 107.41310632311976 77.74472764002599 H 0.0 **** 0.06
9843 H 93.97816161511423 107.17796480562293 79.38795128352288 H 0.0 **** 0.06
9844 H 94.50345457316016 108.79468888307457 78.8597387316174 H 0.0 **** 0.06
9845 H 95.70895806119623 107.5176852773179 79.14732166953877 H 0.0 **** 0.06
9846 C 6.990000857062778 46.021838322487326 1.541717205229702 C 0.0 **** -0.24
9847 H 7.838846578782256 45.379854819062814 1.307659412541284 H 0.0 **** 0.06
9848 H 6.950549131989824 46.84664736232156 0.8299647235979535 H 0.0 **** 0.06
9849 H 7.102299346165774 46.41700232307892 2.5516055448291723 H 0.0 **** 0.06
9850 H 6.068497158842712 45.44195609242274 1.4791826491133833 H 0.0 **** 0.06
9851 C 20.421037647828086 48.502866573716744 38.99270975710397 C 0.0 **** -0.24
9852 H 20.211488341161214 49.49133845815871 38.58278361657915 H 0.0 **** 0.06
9853 H 20.264478481639628 48.517785324888166 40.07142734705002 H 0.0 **** 0.06
9854 H 21.455890600539135 48.23360305105979 38.7800515371481 H 0.0 **** 0.06
9855 H 19.753500805040858 47.77184719271699 38.53794925100698 H 0.0 **** 0.06
9856 C 34.13960521696288 93.65411248818702 36.82232591731041 C 0.0 **** -0.24
9857 H 34.879478355378524 93.18178470162542 37.46965755569047 H 0.0 **** 0.06
9858 H 34.57576195910502 94.53714100828716 36.35621129203957 H 0.0 **** 0.06
9859 H 33.271684060473376 93.94572529455081 37.41453606317461 H 0.0 **** 0.06
9860 H 33.83141648662854 92.94943730438422 36.04954419259643 H 0.0 **** 0.06
9861 C 5.817062422883907 110.36979520813372 63.071312705558306 C 0.0 **** -0.24
9862 H 5.078959444491261 109.74809973534354 62.5640556433171 H 0.0 **** 0.06
9863 H 6.392514270013692 109.75700161358964 63.7650620396013 H 0.0 **** 0.06
9864 H 5.307360255635203 111.16118709385864 63.62137868535424 H 0.0 **** 0.06
9865 H 6.486579085417276 110.812805653434 62.333781573912255 H 0.0 **** 0.06
9866 C 78.3462517240063 74.21712378819188 92.0034073640839 C 0.0 **** -0.24
9867 H 78.40834303256162 73.17150017896628 91.70261029462762 H 0.0 **** 0.06
9868 H 77.65199389206768 74.74311484343565 91.34612006928825 H 0.0 **** 0.06
9869 H 79.33196955372 74.67551578260273 91.93174122803651 H 0.0 **** 0.06
9870 H 77.98947676119934 74.27839612723855 93.03188990319137 H 0.0 **** 0.06
9871 C 96.49284106378354 32.43064055660949 76.67381898390815 C 0.0 **** -0.24
9872 H 96.43003402515592 33.183244456056286 77.46071522642896 H 0.0 **** 0.06
9873 H 97.05542699060894 32.83184718693701 75.8312246323689 H 0.0 **** 0.06
9874 H 95.48737471709143 32.16465278678203 76.34697816260598 H 0.0 **** 0.06
9875 H 96.99625173546531 31.54463647888906 77.0592750401463 H 0.0 **** 0.06
9876 C 64.53777633860653 18.920094846492542 61.81440734138158 C 0.0 **** -0.24
9877 H 65.50019680193847 18.639628234012648 61.38556082081425 H 0.0 **** 0.06
9878 H 64.60073537724102 19.930248731133823 62.21877257419226 H 0.0 **** 0.06
9879 H 64.27845810724028 18.22458133708161 62.61253012113593 H 0.0 **** 0.06
9880 H 63.7712801826627 18.885082499731638 61.03971334394669 H 0.0 **** 0.06
9881 C 44.86970774495691 21.237705727254422 56.406218144724846 C 0.0 **** -0.24
9882 H 44.71148255795407 20.258014421762283 55.95390876216817 H 0.0 **** 0.06
9883 H 44.680964000846984 21.176687677017696 57.47855234094169 H 0.0 **** 0.06
9884 H 44.187365961073596 21.958939419132065 55.956522013206836 H 0.0 **** 0.06
9885 H 45.89851143525544 21.55439678842629 56.23489475844315 H 0.0 **** 0.06
9886 C 85.40144303269335 68.11564083083408 74.09355281974999 C 0.0 **** -0.24
9887 H 86.46064894108002 68.07776160125516 74.34491686241549 H 0.0 **** 0.06
9888 H 84.81487579425905 68.21474510585918 75.00763556206797 H 0.0 **** 0.06
9889 H 85.11752017169482 67.19816390268028 73.57739499429061 H 0.0 **** 0.06
9890 H 85.21175988543882 68.97110988055039 73.44493583137108 H 0.0 **** 0.06
9891 C 90.77925478821498 18.70114661695041 29.02966095087612 C 0.0 **** -0.24
9892 H 90.50623896883093 18.472298748082522 27.998777800771904 H 0.0 **** 0.06
9893 H 90.10050509842847 18.1844541170218 29.70828138230371 H 0.0 **** 0.06
9894 H 90.70966341469546 19.775816700676074 29.193478317602967 H 0.0 **** 0.06
9895 H 91.80100457812085 18.370067144757144 29.216095199911763 H 0.0 **** 0.06
9896 C 14.689403170122233 82.11605725905784 89.62750892696346 C 0.0 **** -0.24
9897 H 15.254639188016114 81.83763572176258 88.73728045121499 H 0.0 **** 0.06
9898 H 14.527153189744865 81.23169177925715 90.2448311193539 H 0.0 **** 0.06
9899 H 13.728264286075216 82.53393475976497 89.33132268302774 H 0.0 **** 0.06
9900 H 15.250075467881345 82.85851132497788 90.19532711474244 H 0.0 **** 0.06
9901 C 40.74890403990914 35.58604482110974 28.5034526610105 C 0.0 **** -0.24
9902 H 39.81730634550719 35.110651030128395 28.196230504191988 H 0.0 **** 0.06
9903 H 41.59167669446396 35.03275824256886 28.08827050984354 H 0.0 **** 0.06
9904 H 40.815444540997795 35.58723815263318 29.591036154103392 H 0.0 **** 0.06
9905 H 40.77128538980433 36.6122850007945 28.13641976012167 H 0.0 **** 0.06
9906 C 23.658188905829 69.13023002005951 105.62651692179986 C 0.0 **** -0.24
9907 H 23.602155003905416 70.16817396682549 105.2968222263342 H 0.0 **** 0.06
9908 H 23.53972511325899 68.46926620200571 104.76709024738693 H 0.0 **** 0.06
9909 H 22.863454369030595 68.93565803677797 106.34718728103061 H 0.0 **** 0.06
9910 H 24.625260669640717 68.94948857594588 106.0937209322719 H 0.0 **** 0.06
9911 C 92.07052204762601 16.500161869365698 94.98614285101547 C 0.0 **** -0.24
9912 H 91.87237333365317 15.578162360956632 95.53195592331784 H 0.0 **** 0.06
9913 H 91.12580898386295 16.97650364194847 94.72234414231247 H 0.0 **** 0.06
9914 H 92.62885954518433 16.271254696468358 94.07824708146151 H 0.0 **** 0.06
9915 H 92.65481608146598 17.173858609777533 95.61246394828882 H 0.0 **** 0.06
9916 C 93.78347720022359 7.1561336203284895 53.0114109425968 C 0.0 **** -0.24
9917 H 93.93200925855538 7.534249441364125 54.022935349290265 H 0.0 **** 0.06
9918 H 92.8939253101345 6.525265386169053 52.987208161739545 H 0.0 **** 0.06
9919 H 94.65241777406553 6.570724384246802 52.71166731545577 H 0.0 **** 0.06
9920 H 93.65475574881256 7.992683148024966 52.325494352074145 H 0.0 **** 0.06
9921 C 42.456609653072746 22.987388543144206 65.18362278943215 C 0.0 **** -0.24
9922 H 42.53376170866328 22.11286974196372 65.82995661499231 H 0.0 **** 0.06
9923 H 41.5830686260394 22.885490264558257 64.53795885981032 H 0.0 **** 0.06
9924 H 43.35433167310035 23.06552774334895 64.57071220841937 H 0.0 **** 0.06
9925 H 42.35437316025555 23.88345523876164 65.79532051743246 H 0.0 **** 0.06
9926 C 14.824360859733588 41.12355870890857 51.20995744508042 C 0.0 **** -0.24
9927 H 14.041553403283046 41.83933721490695 51.46165488954384 H 0.0 **** 0.06
9928 H 15.539002146689825 41.59040128823874 50.53215821207806 H 0.0 **** 0.06
9929 H 14.37816556805575 40.25402862846417 50.72581671031401 H 0.0 **** 0.06
9930 H 15.336509959495913 40.80947100690917 52.11986470706728 H 0.0 **** 0.06
9931 C 77.84506680453424 100.16544943846901 76.66798808295712 C 0.0 **** -0.24
9932 H 77.93996650889412 100.77571687790123 77.56586482029732 H 0.0 **** 0.06
9933 H 78.80805276667107 100.11581337324623 76.15880705497923 H 0.0 **** 0.06
9934 H 77.10438229421158 100.61062690727675 76.00297191976651 H 0.0 **** 0.06
9935 H 77.52786564836012 99.15964059545178 76.94430853678543 H 0.0 **** 0.06
9936 C 13.103675081894181 45.64308841242749 51.436760843223055 C 0.0 **** -0.24
9937 H 12.578740799766592 46.188548181589326 52.221844712966714 H 0.0 **** 0.06
9938 H 13.82523617404533 44.961787268963704 51.88889287460921 H 0.0 **** 0.06
9939 H 13.625513511012798 46.34886006108103 50.79096214139639 H 0.0 **** 0.06
9940 H 12.384970841916044 45.073539538396304 50.847534009790024 H 0.0 **** 0.06
9941 C 106.21407056127268 104.75545999174497 20.155852992794678 C 0.0 **** -0.24
9942 H 106.01423400219011 105.7982548000071 19.910238908549474 H 0.0 **** 0.06
9943 H 106.81600201291297 104.70497887753066 21.06347856643302 H 0.0 **** 0.06
9944 H 106.75444375151358 104.28548108094876 19.33497631276805 H 0.0 **** 0.06
9945 H 105.27108238259106 104.23363034894481 20.317057987201252 H 0.0 **** 0.06
9946 C 111.60857953244214 52.727583811506236 51.64318970302563 C 0.0 **** -0.24
9947 H 111.72061087408967 53.392694608618655 52.499466862102594 H 0.0 **** 0.06
9948 H 112.59027485821933 52.38063772421714 51.32117472347562 H 0.0 **** 0.06
9949 H 111.12605939830742 53.264579438394804 50.826360467871666 H 0.0 **** 0.06
9950 H 110.99527537651703 51.871556873930444 51.927444789050014 H 0.0 **** 0.06
9951 C 83.67624345367199 100.88011520087701 15.356488311883794 C 0.0 **** -0.24
9952 H 82.89705213181654 101.06604342024016 14.617101022399197 H 0.0 **** 0.06
9953 H 83.34570811341882 101.24193526293467 16.329838488523706 H 0.0 **** 0.06
9954 H 84.58571655211472 101.40420101305463 15.063226154455691 H 0.0 **** 0.06
9955 H 83.8754798543965 99.81017098906315 15.41289025907463 H 0.0 **** 0.06
9956 C 100.32172843494334 61.20119997662215 2.5042269220560343 C 0.0 **** -0.24
9957 H 100.7239706549521 60.19976322016481 2.346114064387592 H 0.0 **** 0.06
9958 H 100.96148642647142 61.74273148276882 3.2020516757554276 H 0.0 **** 0.06
9959 H 99.31500674738595 61.1277769939457 2.9148988610990614 H 0.0 **** 0.06
9960 H 100.28913134904028 61.73238635888907 1.5533707926545048 H 0.0 **** 0.06
9961 C 45.934862579338954 103.91735394368592 63.544990348939734 C 0.0 **** -0.24
9962 H 46.86693222119453 104.30461534287497 63.13526767520972 H 0.0 **** 0.06
9963 H 45.30506896298655 104.74846791738884 63.86353951782587 H 0.0 **** 0.06
9964 H 46.15256914503297 103.27773602206906 64.40116779242237 H 0.0 **** 0.06
9965 H 45.41459464586785 103.33843008210059 62.78168672249137 H 0.0 **** 0.06
9966 C 104.35358959669293 67.3886485780773 66.29083559171625 C 0.0 **** -0.24
9967 H 105.37883295159716 67.74968168248503 66.37168805252861 H 0.0 **** 0.06
9968 H 103.79214965630752 68.0405536908174 65.62081697879296 H 0.0 **** 0.06
9969 H 103.88889508780346 67.39230116834784 67.27609066265336 H 0.0 **** 0.06
9970 H 104.35623741691381 66.37394875808138 65.89321742362881 H 0.0 **** 0.06
9971 C 17.69046780817652 110.3259147377304 57.194985380207754 C 0.0 **** -0.24
9972 H 17.204008526618935 111.110514985573 57.773139936443556 H 0.0 **** 0.06
9973 H 18.50247578370852 110.75756971808265 56.608938410449184 H 0.0 **** 0.06
9974 H 16.964665614983687 109.86311448663521 56.526356136550646 H 0.0 **** 0.06
9975 H 18.092890630512585 109.57159861545406 57.872250552347225 H 0.0 **** 0.06
9976 C 95.2031524431226 60.69037311346429 46.01356234248966 C 0.0 **** -0.24
9977 H 94.38012935598016 60.277524777381586 45.42865609311881 H 0.0 **** 0.06
9978 H 94.81367558570614 61.42829463923107 46.716250519598375 H 0.0 **** 0.06
9979 H 95.92030584149413 61.16779620992443 45.34562434257643 H 0.0 **** 0.06
9980 H 95.69571290525795 59.888674860160336 46.56294291373552 H 0.0 **** 0.06
9981 C 65.48963024311882 114.48600864149927 89.42968378316652 C 0.0 **** -0.24
9982 H 66.28786655916494 113.93452945991697 88.93234738462348 H 0.0 **** 0.06
9983 H 64.52728787355298 114.18875023510422 89.0115466781545 H 0.0 **** 0.06
9984 H 65.63842744057862 115.5555689536097 89.27654599505865 H 0.0 **** 0.06
9985 H 65.5062384824389 114.26676763690317 90.4969496697791 H 0.0 **** 0.06
9986 C 75.81269556720991 86.82490449917464 88.175130899312 C 0.0 **** -0.24
9987 H 76.34813095032376 85.88098362405839 88.27913243791389 H 0.0 **** 0.06
9988 H 74.9152409596008 86.80327666075053 88.79298719510888 H 0.0 **** 0.06
9989 H 75.53244816850756 86.96991413499 87.13145441285948 H 0.0 **** 0.06
9990 H 76.45549150075962 87.64436342469395 88.49481566991099 H 0.0 **** 0.06
9991 C 4.50654941354253 103.38427397776846 75.42218733435354 C 0.0 **** -0.24
9992 H 4.648313954872691 103.10176961436494 76.46569109840658 H 0.0 **** 0.06
9993 H 4.442274174755255 102.48510145798866 74.8083628355902 H 0.0 **** 0.06
9994 H 5.350431311298308 103.99093840205956 75.09300105011934 H 0.0 **** 0.06
9995 H 3.585928271322075 103.95825461477867 75.32421887719036 H 0.0 **** 0.06
9996 C 21.531602712294216 49.71694596259442 81.82884948113698 C 0.0 **** -0.24
9997 H 20.447787144267764 49.618872532432874 81.7650106493586 H 0.0 **** 0.06
9998 H 21.95953547050307 48.78930183066967 82.20890195581319 H 0.0 **** 0.06
9999 H 21.782931644284858 50.536561507698195 82.50218974002863 H 0.0 **** 0.06
10000 H 21.936653639959985 49.92489565258825 80.83813828243225 H 0.0 **** 0.06
10001 C 114.91551053295768 20.47207154953074 111.78616847104801 C 0.0 **** -0.24
10002 H 115.55147255514726 19.7283796868127 111.30497231417606 H 0.0 **** 0.06
10003 H 114.64997423047272 20.129939832918524 112.78558941706825 H 0.0 **** 0.06
10004 H 114.00903389028386 20.611501045294233 111.19593245088245 H 0.0 **** 0.06
10005 H 115.45310330862193 21.41814589053328 111.85562608161395 H 0.0 **** 0.06
10006 C 33.158399796932095 24.924680911097667 22.484880214857327 C 0.0 **** -0.24
10007 H 33.18036411950203 25.989056255416607 22.720215504143226 H 0.0 **** 0.06
10008 H 32.80748695043972 24.78664438032702 21.462455145051138 H 0.0 **** 0.06
10009 H 32.48528522053556 24.414426627004644 23.173338825194435 H 0.0 **** 0.06
10010 H 34.16209572482154 24.51078818773839 22.584239618905798 H 0.0 **** 0.06
10011 C 100.70387836990534 36.47833298755941 8.054544811483552 C 0.0 **** -0.24
10012 H 99.83498057593036 35.981771699860104 8.487362928084025 H 0.0 **** 0.06
10013 H 101.38392876569426 35.73054739389573 7.646856062054667 H 0.0 **** 0.06
10014 H 101.21508524994334 37.05325850204409 8.82690234631174 H 0.0 **** 0.06
10015 H 100.37935603896207 37.147434662422924 7.257527133389871 H 0.0 **** 0.06
10016 C 28.751558972796197 37.551259729134486 73.3932715893979 C 0.0 **** -0.24
10017 H 28.391520913663676 38.558179175149775 73.17915978829882 H 0.0 **** 0.06
10018 H 27.90234338890071 36.87501795535261 73.48937516748055 H 0.0 **** 0.06
10019 H 29.319041344294945 37.559249348226366 74.32335859323393 H 0.0 **** 0.06
10020 H 29.39346881850441 37.21570336242188 72.57849022979104 H 0.0 **** 0.06
10021 C 81.48227712992883 51.42936547103943 35.92108087572987 C 0.0 **** -0.24
10022 H 81.2906037585845 51.6766089101657 36.965216865417005 H 0.0 **** 0.06
10023 H 80.8910803589502 52.08417265470453 35.27967461795038 H 0.0 **** 0.06
10024 H 81.2051711004811 50.39149134309983 35.73562866249242 H 0.0 **** 0.06
10025 H 82.54132207093204 51.5677949468172 35.70321838634612 H 0.0 **** 0.06
10026 C 89.03647400550096 40.52566057759239 73.09873569032658 C 0.0 **** -0.24
10027 H 90.11925738663015 40.52633063346692 73.22814097455577 H 0.0 **** 0.06
10028 H 88.56447725751431 40.127703965090134 73.9965811791555 H 0.0 **** 0.06
10029 H 88.77352243109308 39.90405082762037 72.24369436470724 H 0.0 **** 0.06
10030 H 88.69132914446573 41.54479219007049 72.9278331437755 H 0.0 **** 0.06
10031 C 102.08903027880007 106.82133670774218 62.498589396125965 C 0.0 **** -0.24
10032 H 101.0289546959126 106.92749128623012 62.26840485240058 H 0.0 **** 0.06
10033 H 102.2065655087024 106.54832550538595 63.54765772771438 H 0.0 **** 0.06
10034 H 102.59886713441495 107.76539115027714 62.30879871493812 H 0.0 **** 0.06
10035 H 102.52129601461763 106.0419615265765 61.869756573181974 H 0.0 **** 0.06
10036 C 78.76355335159386 87.32722244552872 94.43662697313763 C 0.0 **** -0.24
10037 H 79.43444731495146 86.63003609913201 94.93781197905236 H 0.0 **** 0.06
10038 H 78.33386814153755 86.84765924081717 93.5569186458371 H 0.0 **** 0.06
10039 H 79.32064502292084 88.21300239859741 94.13270977305595 H 0.0 **** 0.06
10040 H 77.96502829279882 87.61632146378341 95.12027197001356 H 0.0 **** 0.06
10041 C 54.190211149384794 106.69246443906272 97.09784675998492 C 0.0 **** -0.24
10042 H 55.08853654682824 106.4854014227501 96.51520156379979 H 0.0 **** 0.06
10043 H 53.31634538369326 106.6410722476619 96.44825347162276 H 0.0 **** 0.06
10044 H 54.26269832831488 107.69009544783898 97.53278127993994 H 0.0 **** 0.06
10045 H 54.0961372090799 105.954906331908 97.89478972490076 H 0.0 **** 0.06
10046 C 91.76530753036803 59.669683764303635 44.27671194922445 C 0.0 **** -0.24
10047 H 90.69487821857626 59.70820260593829 44.47617947489246 H 0.0 **** 0.06
10048 H 92.16207464635067 60.68414191449468 44.228957109757005 H 0.0 **** 0.06
10049 H 91.94014211445091 59.165960576144634 43.32666210141022 H 0.0 **** 0.06
10050 H 92.26458935405878 59.12206477967691 45.076108020842184 H 0.0 **** 0.06
10051 C 79.52777609044094 39.8505829628328 60.896315657445236 C 0.0 **** -0.24
10052 H 79.84688871472687 39.178225030379615 60.09925105952677 H 0.0 **** 0.06
10053 H 78.45625885290949 40.03129044066807 60.81223492755385 H 0.0 **** 0.06
10054 H 80.06359750294061 40.79578671155601 60.80944074604165 H 0.0 **** 0.06
10055 H 79.74651029054704 39.39737423720106 61.86383115457665 H 0.0 **** 0.06
10056 C 107.30938407329734 94.85388352141464 116.08836640541767 C 0.0 **** -0.24
10057 H 107.37223597416647 94.22876970045013 115.19732805189898 H 0.0 **** 0.06
10058 H 107.57688426883442 95.87969113940997 115.8323812205492 H 0.0 **** 0.06
10059 H 107.99770277968526 94.4768937646648 116.844997797839 H 0.0 **** 0.06
10060 H 106.29170811346978 94.83012651312998 116.47867171871246 H 0.0 **** 0.06
10061 C 34.05164420987856 38.14842328430541 47.588513752665605 C 0.0 **** -0.24
10062 H 34.192345961344 38.53362319249953 48.59806660952357 H 0.0 **** 0.06
10063 H 34.85385609330359 37.447667823286395 47.35160027532547 H 0.0 **** 0.06
10064 H 34.06985926444591 38.97437743864646 46.87895276835073 H 0.0 **** 0.06
10065 H 33.09183790021427 37.636311444748685 47.52599786732635 H 0.0 **** 0.06
10066 C 9.352727489961978 107.39386396435017 78.43838423392364 C 0.0 **** -0.24
10067 H 8.866332064266345 106.56933941931447 78.96098332758453 H 0.0 **** 0.06
10068 H 8.594783867629857 108.04733107426694 78.00713473489395 H 0.0 **** 0.06
10069 H 9.984916099942765 106.99633040438778 77.6442698796846 H 0.0 **** 0.06
10070 H 9.964283353125325 107.95919292655319 79.14122811849197 H 0.0 **** 0.06
10071 C 72.84321816503288 35.834674346007496 22.595149619362772 C 0.0 **** -0.24
10072 H 73.29915770321932 34.96378747766956 22.12356802425205 H 0.0 **** 0.06
10073 H 72.12492891912538 36.28457298099787 21.909331292750963 H 0.0 **** 0.06
10074 H 73.61703804152364 36.562191248594374 22.840108634997165 H 0.0 **** 0.06
10075 H 72.33142471786655 35.526981796441156 23.506855005387393 H 0.0 **** 0.06
10076 C 64.72146165432193 62.318810713185286 103.84931415579729 C 0.0 **** -0.24
10077 H 65.71732416642939 62.71477176705136 103.65529726505318 H 0.0 **** 0.06
10078 H 64.19866183354009 62.9758715043686 104.54537055651241 H 0.0 **** 0.06
10079 H 64.80523084467907 61.32229405989321 104.28452252779749 H 0.0 **** 0.06
10080 H 64.1645156508497 62.26110857909421 102.91499114745878 H 0.0 **** 0.06
10081 C 51.54829731519355 115.33347651187358 64.35858961494881 C 0.0 **** -0.24
10082 H 50.79239556917014 114.54828152220978 64.39566269074456 H 0.0 **** 0.06
10083 H 52.378821527868595 115.0093595316205 63.732384685285375 H 0.0 **** 0.06
10084 H 51.909423704168944 115.53606920462201 65.3669744167671 H 0.0 **** 0.06
10085 H 51.10905181227514 116.23996336275263 63.9415093203501 H 0.0 **** 0.06
10086 C 2.4331346036203296 1.1765119407414169 25.809745548670662 C 0.0 **** -0.24
10087 H 2.4564523398050397 1.384096797894463 24.73995782473321 H 0.0 **** 0.06
10088 H 2.4184143460514136 2.1166334216440035 26.36262978129278 H 0.0 **** 0.06
10089 H 3.3193492414508796 0.6050531575562097 26.08752333416058 H 0.0 **** 0.06
10090 H 1.5396276754734473 0.5997731534888651 26.048636115495384 H 0.0 **** 0.06
10091 C 83.25274685875468 89.6288287294546 64.5904970420876 C 0.0 **** -0.24
10092 H 84.25895591017562 89.89161640082523 64.26439746293786 H 0.0 **** 0.06
10093 H 83.30953841084522 88.85641581309869 65.35731055062479 H 0.0 **** 0.06
10094 H 82.68203551389513 89.2553961683399 63.739175860977774 H 0.0 **** 0.06
10095 H 82.76045190619203 90.51086523709989 64.9984666089455 H 0.0 **** 0.06
10096 C 66.06380370932209 96.05500648667285 104.39199221024339 C 0.0 **** -0.24
10097 H 65.05318045248157 96.15080959247689 104.79188281928276 H 0.0 **** 0.06
10098 H 66.68366613879653 95.50553646193936 105.10007920540582 H 0.0 **** 0.06
10099 H 66.48562837823795 97.04670616458455 104.23142568323644 H 0.0 **** 0.06
10100 H 66.02947754189904 95.51671960521827 103.44512269580295 H 0.0 **** 0.06
10101 C 83.68985668064161 49.77221055817034 28.747435093419938 C 0.0 **** -0.24
10102 H 84.27163076294079 50.52240252722336 29.28402521114549 H 0.0 **** 0.06
10103 H 83.68438387791409 48.84162168677855 29.315504105475043 H 0.0 **** 0.06
10104 H 84.13743719300638 49.59863932093285 27.76814210599815 H 0.0 **** 0.06
10105 H 82.6672368283017 50.12802440419077 28.62210310403856 H 0.0 **** 0.06
10106 C 70.48784004166674 75.88634554902876 78.251424803122 C 0.0 **** -0.24
10107 H 70.68199796879264 75.14482043748626 79.02603576558738 H 0.0 **** 0.06
10108 H 71.21167935155523 75.766022527545 77.4439967132329 H 0.0 **** 0.06
10109 H 70.57905797426056 76.88673730487707 78.67495474410438 H 0.0 **** 0.06
10110 H 69.4801291086695 75.7484419745177 77.86013946486659 H 0.0 **** 0.06
10111 C 33.54375702346764 44.675124545923524 10.96960705756932 C 0.0 **** -0.24
10112 H 34.566584380721295 44.38373772370619 10.729761457834996 H 0.0 **** 0.06
10113 H 32.94408000946224 43.78140874786524 11.143568390929275 H 0.0 **** 0.06
10114 H 33.12250396645634 45.239000391936145 10.136628711581338 H 0.0 **** 0.06
10115 H 33.54285387966322 45.29485511526265 11.8660668436586 H 0.0 **** 0.06
10116 C 57.81951171737969 17.07920416755198 63.3532868115013 C 0.0 **** -0.24
10117 H 57.076475864031444 17.56743474627561 63.98189753681371 H 0.0 **** 0.06
10118 H 57.31865813878276 16.43253347767657 62.632890620887174 H 0.0 **** 0.06
10119 H 58.48649382063672 16.482120935131206 63.97496392903248 H 0.0 **** 0.06
10120 H 58.398710922208856 17.835443354704466 62.82159643912329 H 0.0 **** 0.06
10121 C 46.072542266939365 48.56054942433037 72.02317834406406 C 0.0 **** -0.24
10122 H 45.46442514669184 48.69506643262106 72.91793514362993 H 0.0 **** 0.06
10123 H 45.868397716508866 49.37025942707472 71.32095344128643 H 0.0 **** 0.06
10124 H 45.82762770721149 47.60498435404474 71.55857284568575 H 0.0 **** 0.06
10125 H 47.12755927697452 48.573042019960084 72.29518010249896 H 0.0 **** 0.06
10126 C 76.40411963575565 67.69491253615169 5.923574693815297 C 0.0 **** -0.24
10127 H 76.2116475391826 68.74541055818571 6.13679346433932 H 0.0 **** 0.06
10128 H 77.41497290270382 67.43953223647256 6.2425411184035795 H 0.0 **** 0.06
10129 H 76.30544917861877 67.51684254353145 4.853025699103554 H 0.0 **** 0.06
10130 H 75.68657045810926 67.07688276719657 6.4625415781133455 H 0.0 **** 0.06
10131 C 65.0262538669009 6.550230393341309 66.0415128227092 C 0.0 **** -0.24
10132 H 64.10178471115364 6.176764849570489 65.59942876118262 H 0.0 **** 0.06
10133 H 65.67596973176512 6.931021593812773 65.25374236161738 H 0.0 **** 0.06
10134 H 65.52863671094917 5.740324477025908 66.56951073259984 H 0.0 **** 0.06
10135 H 64.79486150127991 7.351724992229649 66.74207964085554 H 0.0 **** 0.06
10136 C 22.458016889897408 19.143268157578575 102.28842014960378 C 0.0 **** -0.24
10137 H 21.745720751519116 19.960009589540846 102.16399059098777 H 0.0 **** 0.06
10138 H 23.351475806943085 19.349190827237635 101.69918847252276 H 0.0 **** 0.06
10139 H 22.00456850598667 18.21205288876547 101.94903446448976 H 0.0 **** 0.06
10140 H 22.727352852117974 19.054319651974026 103.34003565266994 H 0.0 **** 0.06
10141 C 15.497929232245724 0.6701321154278048 70.32559222779844 C 0.0 **** -0.24
10142 H 16.3799205759791 0.029737793862182116 70.31480569184941 H 0.0 **** 0.06
10143 H 14.678052677505974 0.1508873670240405 70.82105690344906 H 0.0 **** 0.06
10144 H 15.211511603762546 0.9091860493892909 69.30109812690011 H 0.0 **** 0.06
10145 H 15.723569955927005 1.5907551288615025 70.86361684273055 H 0.0 **** 0.06
10146 C 50.872381092551734 14.138861693623312 18.933296334173587 C 0.0 **** -0.24
10147 H 51.26368626089726 13.607219740705801 19.801533140127017 H 0.0 **** 0.06
10148 H 51.65863411537231 14.241025262588892 18.1859606005175 H 0.0 **** 0.06
10149 H 50.52783983279926 15.127074555962224 19.238433418998923 H 0.0 **** 0.06
10150 H 50.03855182247469 13.577991102976782 18.510047063021734 H 0.0 **** 0.06
10151 C 101.69461437680195 21.04531542202477 64.43024012925744 C 0.0 **** -0.24
10152 H 101.59008752403395 20.391981221888045 63.56338224599214 H 0.0 **** 0.06
10153 H 102.38816104437012 20.596579697780044 65.14125646105447 H 0.0 **** 0.06
10154 H 100.72175177039247 21.17746121820994 64.904296913715 H 0.0 **** 0.06
10155 H 102.07784135485218 22.014526914918463 64.10976364155366 H 0.0 **** 0.06
10156 C 61.94065538610559 43.70630115105263 57.05728684511791 C 0.0 **** -0.24
10157 H 61.86786939712681 43.63534182947954 58.1422577684611 H 0.0 **** 0.06
10158 H 60.94099740556999 43.776766041317444 56.629186909995134 H 0.0 **** 0.06
10159 H 62.440776131341096 42.81918360606207 56.66828339349164 H 0.0 **** 0.06
10160 H 62.5153231647416 44.5932073991046 56.789346090985624 H 0.0 **** 0.06
10161 C 87.05550669485746 74.52359626081946 25.981635098064686 C 0.0 **** -0.24
10162 H 87.6832499472142 73.66002357730838 25.76441739422151 H 0.0 **** 0.06
10163 H 86.47568079315155 74.78357508234095 25.094872999599517 H 0.0 **** 0.06
10164 H 87.68337896298223 75.36827143188188 26.265135069519573 H 0.0 **** 0.06
10165 H 86.37754863655366 74.28383855425628 26.800871381248044 H 0.0 **** 0.06
10166 C 57.176548451587934 100.0985267316812 99.59622156873704 C 0.0 **** -0.24
10167 H 58.249410749408696 99.93124596032948 99.69806789123422 H 0.0 **** 0.06
10168 H 56.80325193446532 99.54539157195373 98.73492306356556 H 0.0 **** 0.06
10169 H 56.98701097651903 101.16242646660336 99.4555843230709 H 0.0 **** 0.06
10170 H 56.66861911286841 99.75486462350429 100.49706122086161 H 0.0 **** 0.06
10171 C 38.21359729369263 102.031512669182 77.70072135387443 C 0.0 **** -0.24
10172 H 38.817363824670366 102.83632936453787 78.12060473664815 H 0.0 **** 0.06
10173 H 38.15161362177284 101.21248647513158 78.41701463254057 H 0.0 **** 0.06
10174 H 38.674967220493635 101.67473809898527 76.77935947195886 H 0.0 **** 0.06
10175 H 37.212225264130495 102.403105562364 77.48469887809537 H 0.0 **** 0.06
10176 C 68.45207721348177 36.533053571648054 74.7160940837166 C 0.0 **** -0.24
10177 H 68.53102163010291 37.12915448229114 75.6259014914958 H 0.0 **** 0.06
10178 H 69.36603373282506 36.63926927789825 74.13166814944884 H 0.0 **** 0.06
10179 H 67.60172777322632 36.878729910641624 74.12882189216819 H 0.0 **** 0.06
10180 H 68.30871474133073 35.48454822091358 74.98115976746658 H 0.0 **** 0.06
10181 C 9.634881804984232 17.115437345812342 21.66960984486721 C 0.0 **** -0.24
10182 H 10.309250770670758 16.32879714936396 22.008728839217298 H 0.0 **** 0.06
10183 H 8.95454254425752 16.712614857444336 20.919514198158964 H 0.0 **** 0.06
10184 H 10.2170438381401 17.928567557900266 21.234057679106442 H 0.0 **** 0.06
10185 H 9.061986943481003 17.4924900991251 22.51692128491493 H 0.0 **** 0.06
10186 C 17.290288535458245 36.990675379205626 36.42343177349026 C 0.0 **** -0.24
10187 H 18.210005245736397 36.44830096659247 36.20541318625596 H 0.0 **** 0.06
10188 H 17.45542884085691 38.0582304449993 36.27965834734755 H 0.0 **** 0.06
10189 H 16.9943756370063 36.80404352144051 37.45680837322956 H 0.0 **** 0.06
10190 H 16.5010008927392 36.6511235689091 35.752783171894414 H 0.0 **** 0.06
10191 C 24.91826201792213 9.523808972251622 57.706306512164474 C 0.0 **** -0.24
10192 H 24.84751800046513 9.699109630465571 56.63239078812478 H 0.0 **** 0.06
10193 H 25.262953138211287 8.505229356523078 57.88556493864178 H 0.0 **** 0.06
10194 H 23.93821185567569 9.661250860019383 58.16217965282368 H 0.0 **** 0.06
10195 H 25.624778893784594 10.228796757529455 58.144038249028995 H 0.0 **** 0.06
10196 C 51.83074250010051 51.0068540748087 49.854373039276624 C 0.0 **** -0.24
10197 H 52.04451865761621 51.17881502767236 48.7988541028092 H 0.0 **** 0.06
10198 H 50.830354779725155 50.58437171306505 49.95723279565212 H 0.0 **** 0.06
10199 H 51.88409487204649 51.95175715036697 50.39416522817845 H 0.0 **** 0.06
10200 H 52.56301184712302 50.31092884371722 50.264476290876644 H 0.0 **** 0.06
10201 C 86.7278881286467 57.28061139236843 88.56939070155622 C 0.0 **** -0.24
10202 H 87.69411808449294 56.77769796784844 88.55430273861217 H 0.0 **** 0.06
10203 H 86.86251862026774 58.3166644722391 88.8804318915611 H 0.0 **** 0.06
10204 H 86.06473128285035 56.773330030531895 89.27124800663145 H 0.0 **** 0.06
10205 H 86.28896995601912 57.25402922921529 87.57154940845857 H 0.0 **** 0.06
10206 C 94.53451624766478 67.11415862891346 109.80688853190907 C 0.0 **** -0.24
10207 H 95.08308385319805 67.06005958127713 108.86637332255475 H 0.0 **** 0.06
10208 H 94.73046704479356 68.07339277650644 110.28703450602603 H 0.0 **** 0.06
10209 H 94.857148967549 66.30631728656113 110.46277830053975 H 0.0 **** 0.06
10210 H 93.4664103397983 67.01759768865114 109.60948341527654 H 0.0 **** 0.06
10211 C 76.97400616430224 103.2295198486394 61.20831378585211 C 0.0 **** -0.24
10212 H 76.13965890156055 103.34957341521826 60.51770121989421 H 0.0 **** 0.06
10213 H 77.7028553764024 102.5410381094645 60.780982917694075 H 0.0 **** 0.06
10214 H 76.6066133457893 102.82905871345633 62.15415281502129 H 0.0 **** 0.06
10215 H 77.44474096667426 104.19669059488916 61.381966900842144 H 0.0 **** 0.06
10216 C 13.545347521343501 93.09397351279819 38.77851136127645 C 0.0 **** -0.24
10217 H 14.057593463204626 93.0522129638237 39.73996138153486 H 0.0 **** 0.06
10218 H 12.860251445679324 92.25015662705448 38.694878761707834 H 0.0 **** 0.06
10219 H 14.280280142201832 93.04610325694208 37.97410317681941 H 0.0 **** 0.06
10220 H 12.985817732049043 94.02598101248819 38.704461729220625 H 0.0 **** 0.06
10221 C 31.216886425218604 2.8755129778540436 73.11066763967008 C 0.0 **** -0.24
10222 H 31.750868143450653 2.594248281762077 72.20284404596288 H 0.0 **** 0.06
10223 H 30.49378490179167 2.098717653199401 73.36151269140191 H 0.0 **** 0.06
10224 H 30.6953533848531 3.8180751759288114 72.94704703281084 H 0.0 **** 0.06
10225 H 31.92732276856168 2.9892558039859978 73.92905917025533 H 0.0 **** 0.06
10226 C 8.777422819173296 29.067554783871685 58.0634947782398 C 0.0 **** -0.24
10227 H 9.582844345881437 28.632766120009364 57.470490543323336 H 0.0 **** 0.06
10228 H 8.695418298276977 30.131264977061647 57.83777391130221 H 0.0 **** 0.06
10229 H 8.996267506760653 28.9362749218339 59.122652697770434 H 0.0 **** 0.06
10230 H 7.838563912657616 28.570342195682798 57.82156605105763 H 0.0 **** 0.06
10231 C 16.841205479484085 49.02579916913959 0.0346580132365375 C 0.0 **** -0.24
10232 H 16.72586758188241 48.509045816417775 -0.9176476394023609 H 0.0 **** 0.06
10233 H 17.07933908750766 48.30220911292182 0.8145764751799618 H 0.0 **** 0.06
10234 H 15.91135609247717 49.537769471536905 0.2861587121593061 H 0.0 **** 0.06
10235 H 17.647433101225054 49.755730143934905 -0.04202831507311089 H 0.0 **** 0.06
10236 C 17.621335426162247 29.263013224124734 23.921143443197373 C 0.0 **** -0.24
10237 H 17.29549695213899 28.244401034058427 23.710161289397426 H 0.0 **** 0.06
10238 H 18.710571108548024 29.29201075249901 23.970568443149418 H 0.0 **** 0.06
10239 H 17.206105867963444 29.586506512108357 24.87580961109731 H 0.0 **** 0.06
10240 H 17.27572391395438 29.927300454954405 23.13005998866063 H 0.0 **** 0.06
10241 C 91.81005972451004 104.59667804233521 87.9622869633962 C 0.0 **** -0.24
10242 H 90.72139298096488 104.61898993823266 87.92221428650788 H 0.0 **** 0.06
10243 H 92.15135720845615 103.56276390495404 88.00818378552219 H 0.0 **** 0.06
10244 H 92.15154630671015 105.13142515582936 88.84860372695692 H 0.0 **** 0.06
10245 H 92.21660863927906 105.07533415710401 87.07129185765126 H 0.0 **** 0.06
10246 C 90.31009283495723 71.95555478112436 6.725310470207711 C 0.0 **** -0.24
10247 H 90.27055707900999 71.95728588602631 7.8141340714084535 H 0.0 **** 0.06
10248 H 89.31083594099155 71.78025143916582 6.326104517153919 H 0.0 **** 0.06
10249 H 90.98160296458306 71.16565793774706 6.38763143084908 H 0.0 **** 0.06
10250 H 90.6791755494225 72.91921878304032 6.374221295783 H 0.0 **** 0.06
10251 C 113.40109474461283 27.485895014947005 108.68135446732964 C 0.0 **** -0.24
10252 H 113.78089127793075 27.248647163904195 107.6867776179426 H 0.0 **** 0.06
10253 H 113.09119971238931 28.531729708047635 108.71165267034645 H 0.0 **** 0.06
10254 H 114.18567648263428 27.317779372307825 109.41938943735583 H 0.0 **** 0.06
10255 H 112.54778012022052 26.846578077149218 108.90608080719538 H 0.0 **** 0.06
10256 C 64.55384089427662 21.79340316174718 115.88140917120899 C 0.0 **** -0.24
10257 H 64.68242831559758 22.8698395393682 115.7644433070381 H 0.0 **** 0.06
10258 H 65.53150618972234 21.319287490880143 115.96849459821019 H 0.0 **** 0.06
10259 H 64.0305363101462 21.3943122084238 115.013690570661 H 0.0 **** 0.06
10260 H 63.97188224585096 21.594116900957502 116.78087125690959 H 0.0 **** 0.06
10261 C 97.48883507624478 51.51790912670597 7.347152734418216 C 0.0 **** -0.24
10262 H 96.76224017493197 51.82160724717352 8.100224589635445 H 0.0 **** 0.06
10263 H 97.64053292646247 52.33311162879525 6.638653834325282 H 0.0 **** 0.06
10264 H 97.11679146529292 50.640975037044086 6.817356434051987 H 0.0 **** 0.06
10265 H 98.43465533371358 51.27594774480508 7.830719305913419 H 0.0 **** 0.06
10266 C 69.64135049370631 52.49841426623237 7.3010852732232365 C 0.0 **** -0.24
10267 H 68.88305755458327 52.50853122725837 8.083589836446137 H 0.0 **** 0.06
10268 H 69.4423147253267 53.301970001580315 6.591863925171452 H 0.0 **** 0.06
10269 H 69.61344591784834 51.53935592487014 6.7824915212853085 H 0.0 **** 0.06
10270 H 70.62548177740206 52.64077297222559 7.7471856679577655 H 0.0 **** 0.06
10271 C 62.739668477281164 79.02275298075767 30.39560765326422 C 0.0 **** -0.24
10272 H 63.82902936320222 78.97373411187436 30.399854478450436 H 0.0 **** 0.06
10273 H 62.383178772076455 79.09079561359363 29.36691558996398 H 0.0 **** 0.06
10274 H 62.41331535165224 79.90084772357906 30.952622203355816 H 0.0 **** 0.06
10275 H 62.3340471937367 78.12485526400624 30.861143896021986 H 0.0 **** 0.06
10276 C 1.1235371338008235 72.07607467675658 105.32093247816118 C 0.0 **** -0.24
10277 H 0.9726416029326117 71.62978816954643 106.30335234702864 H 0.0 **** 0.06
10278 H 0.15822021331882752 72.3254691839004 104.88255310101013 H 0.0 **** 0.06
10279 H 1.6434934301202873 71.36690904784402 104.67650750023788 H 0.0 **** 0.06
10280 H 1.7234175728766559 72.981553929097 105.42204556461832 H 0.0 **** 0.06
10281 C 114.72844857164858 7.991974054772612 26.538762114723994 C 0.0 **** -0.24
10282 H 114.11897068967866 8.271541482910862 27.397934805264683 H 0.0 **** 0.06
10283 H 115.34707189464413 8.839150285189845 26.241192571028364 H 0.0 **** 0.06
10284 H 114.08129181781334 7.705951865318951 25.710483583677473 H 0.0 **** 0.06
10285 H 115.36901439241296 7.151184852454747 26.806650085302152 H 0.0 **** 0.06
10286 C 17.21289321809492 87.66102818368995 62.52412567269323 C 0.0 **** -0.24
10287 H 17.57884840192301 88.33060242949236 61.745998384437 H 0.0 **** 0.06
10288 H 16.83365601090364 86.74669340846063 62.067226282421814 H 0.0 **** 0.06
10289 H 16.412525321816403 88.15080288266961 63.0775720231444 H 0.0 **** 0.06
10290 H 18.02856051203007 87.41616497581037 63.20432478397586 H 0.0 **** 0.06
10291 C 27.780253367329834 45.359132748312476 107.47072597198198 C 0.0 **** -0.24
10292 H 26.756125736154814 45.637233232272706 107.22069054338553 H 0.0 **** 0.06
10293 H 28.177175511697584 44.70324859117082 106.69510504677893 H 0.0 **** 0.06
10294 H 27.791473147001938 44.83943069164465 108.4281985764838 H 0.0 **** 0.06
10295 H 28.394645516743196 46.2568616312669 107.53735996626511 H 0.0 **** 0.06
10296 C 99.01023408633117 110.1180070825144 63.002513338974985 C 0.0 **** -0.24
10297 H 99.74014266112056 109.50442274004563 63.53070525516245 H 0.0 **** 0.06
10298 H 99.2239242271929 111.17211388131993 63.18302766091508 H 0.0 **** 0.06
10299 H 98.00905546225442 109.88231184576006 63.3646336751573 H 0.0 **** 0.06
10300 H 99.06809331471081 109.91285693535899 61.93364071715829 H 0.0 **** 0.06
10301 C 7.57715166001762 27.872047771120464 73.86187122889498 C 0.0 **** -0.24
10302 H 7.311330980925021 27.951929989452964 74.91564593302988 H 0.0 **** 0.06
10303 H 8.414035947563832 27.181283941855867 73.7500673890464 H 0.0 **** 0.06
10304 H 7.862002873248301 28.85363346105953 73.48364343781577 H 0.0 **** 0.06
10305 H 6.721298422867051 27.499273772222182 73.29943658500926 H 0.0 **** 0.06
10306 C 60.78262077299365 17.938591369625044 24.38432928993808 C 0.0 **** -0.24
10307 H 59.82073741297026 18.44968782598744 24.428700418085782 H 0.0 **** 0.06
10308 H 60.65122959425841 16.8930222864753 24.661552252553918 H 0.0 **** 0.06
10309 H 61.47868145112187 18.413318964507326 25.07512965797187 H 0.0 **** 0.06
10310 H 61.17871060850322 17.99857393483913 23.37063855971715 H 0.0 **** 0.06
10311 C 26.42033396435022 53.301356339271706 88.65171411282464 C 0.0 **** -0.24
10312 H 27.279003937718926 52.64068931061121 88.76894417117725 H 0.0 **** 0.06
10313 H 25.966733467816653 53.13779848692599 87.67411379069827 H 0.0 **** 0.06
10314 H 26.74700145553402 54.338284993559455 88.7318221384094 H 0.0 **** 0.06
10315 H 25.689599538253447 53.08924700493452 89.43277739292029 H 0.0 **** 0.06
10316 C 38.34140488484843 77.65790239296263 4.452474141201453 C 0.0 **** -0.24
10317 H 38.919657938125624 78.58120602102812 4.4888030126321095 H 0.0 **** 0.06
10318 H 37.29610307057419 77.89218593967936 4.248233182471665 H 0.0 **** 0.06
10319 H 38.418307304154894 77.14318453994792 5.410439976067858 H 0.0 **** 0.06
10320 H 38.73120926243553 77.01640506095427 3.6624490424269815 H 0.0 **** 0.06
10321 C 99.16223144169223 108.87617614560946 58.87911818165373 C 0.0 **** -0.24
10322 H 99.46380112808438 109.92095467628243 58.80096102510809 H 0.0 **** 0.06
10323 H 100.04307589283715 108.25581548563963 59.04705483091768 H 0.0 **** 0.06
10324 H 98.6719858384898 108.5696222077455 57.955335808445916 H 0.0 **** 0.06
10325 H 98.47132354720625 108.76001322642159 59.71384052720909 H 0.0 **** 0.06
10326 C 66.71756556709951 67.2736075953421 5.934498954538768 C 0.0 **** -0.24
10327 H 66.50500337114804 67.633230463943 4.926849326418278 H 0.0 **** 0.06
10328 H 65.93560277039259 67.61326815959157 6.613731503913584 H 0.0 **** 0.06
10329 H 67.68135263339275 67.66397434459947 6.263713697919584 H 0.0 **** 0.06
10330 H 66.74926617812838 66.18424593635211 5.931467382799909 H 0.0 **** 0.06
10331 C 34.8358667213372 79.88603910946142 6.677792690186521 C 0.0 **** -0.24
10332 H 35.83642223110408 79.54136996156464 6.415026891291632 H 0.0 **** 0.06
10333 H 34.88699109828869 80.92150482106399 7.017055313995257 H 0.0 **** 0.06
10334 H 34.43506467921162 79.26069753862805 7.4748225147521055 H 0.0 **** 0.06
10335 H 34.18802875810766 79.82146051413858 5.803270205789943 H 0.0 **** 0.06
10336 C 14.493874285864532 35.968098568583 56.02323154337148 C 0.0 **** -0.24
10337 H 14.601335901827323 37.050744112454765 55.96061714444437 H 0.0 **** 0.06
10338 H 15.396634163750939 35.537016413987146 56.45675637747783 H 0.0 **** 0.06
10339 H 14.339703611551819 35.560563907162134 55.024338735634586 H 0.0 **** 0.06
10340 H 13.636387164661215 35.72390688771492 56.65025963191084 H 0.0 **** 0.06
10341 C 88.19391311058746 88.79406677921446 102.57642806373596 C 0.0 **** -0.24
10342 H 89.16088524509308 88.3832150294142 102.28529969969279 H 0.0 **** 0.06
10343 H 87.71006683954539 88.11765993367601 103.28189358448691 H 0.0 **** 0.06
10344 H 87.5665470172498 88.9072182806512 101.6929585290583 H 0.0 **** 0.06
10345 H 88.33970855740728 89.76653559069416 103.0465079010757 H 0.0 **** 0.06
10346 C 41.6094167589917 65.94236995097705 2.652018711253845 C 0.0 **** -0.24
10347 H 40.849905132070376 65.62797223906435 1.9364978466264233 H 0.0 **** 0.06
10348 H 41.177616779441564 66.66349178579296 3.345672814183601 H 0.0 **** 0.06
10349 H 42.44224953437856 66.40244749362984 2.1200852605709315 H 0.0 **** 0.06
10350 H 41.96709611484624 65.07348211590596 3.2057239164679174 H 0.0 **** 0.06
10351 C 45.96893013817274 75.40121629120799 112.7654823430367 C 0.0 **** -0.24
10352 H 46.07138908242763 74.71058012458809 111.9281479746122 H 0.0 **** 0.06
10353 H 44.940433488291575 75.38399606639379 113.12618315587622 H 0.0 **** 0.06
10354 H 46.22228562226596 76.409291071869 112.43694282569645 H 0.0 **** 0.06
10355 H 46.64128207951305 75.10086057130022 113.56823211169356 H 0.0 **** 0.06
10356 C 69.22682074209453 60.197767844303854 1.2634459071921924 C 0.0 **** -0.24
10357 H 68.15609161740022 60.394814876398556 1.2034657485382354 H 0.0 **** 0.06
10358 H 69.41306497056834 59.13947749219227 1.0775167566930577 H 0.0 **** 0.06
10359 H 69.58849195268104 60.46164806983455 2.2579554384240055 H 0.0 **** 0.06
10360 H 69.74816691014092 60.79606502239332 0.5162507367858495 H 0.0 **** 0.06
10361 C 3.1807961721092113 98.77755921944205 63.539172400583574 C 0.0 **** -0.24
10362 H 3.1592053759188445 99.81287851098398 63.87948809387415 H 0.0 **** 0.06
10363 H 2.867120964589205 98.73024229872743 62.496195431708635 H 0.0 **** 0.06
10364 H 2.5043541770096027 98.18009979308425 64.15065866076847 H 0.0 **** 0.06
10365 H 4.19420301032396 98.38617894954848 63.6315361636692 H 0.0 **** 0.06
10366 C 1.5878589913717178 40.920351377223426 55.55844950117491 C 0.0 **** -0.24
10367 H 0.5572307088210664 40.68643681408287 55.82574952096636 H 0.0 **** 0.06
10368 H 2.213210274782057 40.04192243151823 55.72345686763925 H 0.0 **** 0.06
10369 H 1.9448875617582644 41.74239073723328 56.17793621673264 H 0.0 **** 0.06
10370 H 1.634571865744192 41.208873930555285 54.50851779369438 H 0.0 **** 0.06
10371 C 44.867514390458496 81.22755188570528 79.3483101115014 C 0.0 **** -0.24
10372 H 45.052190263776936 80.16665369665449 79.17650534139764 H 0.0 **** 0.06
10373 H 43.79219683484274 81.40778870809638 79.38029303167457 H 0.0 **** 0.06
10374 H 45.310634335026634 81.80838613148578 78.5404368794203 H 0.0 **** 0.06
10375 H 45.31367504128406 81.52396084241315 80.29786653254357 H 0.0 **** 0.06
10376 C 112.2849671832721 32.39534469499637 18.384432031226453 C 0.0 **** -0.24
10377 H 111.82135863574692 33.135187461301335 19.037870497765468 H 0.0 **** 0.06
10378 H 113.35850053369607 32.36623494672638 18.57334943671556 H 0.0 **** 0.06
10379 H 112.10480191215298 32.667427230291864 17.343953972225265 H 0.0 **** 0.06
10380 H 111.85322127843784 31.414343194506728 18.583428288435968 H 0.0 **** 0.06
10381 C 4.16567632264406 45.391040210507164 88.5768228540945 C 0.0 **** -0.24
10382 H 4.96346956162256 46.09532429180769 88.33726085976858 H 0.0 **** 0.06
10383 H 4.562743045891551 44.375434276868475 88.56305186854311 H 0.0 **** 0.06
10384 H 3.3689584133206267 45.47941461235467 87.83833149067547 H 0.0 **** 0.06
10385 H 3.770372012308542 45.61362313942723 89.56696940726727 H 0.0 **** 0.06
10386 C 22.49986364579955 58.33888331051923 42.036427993112056 C 0.0 **** -0.24
10387 H 22.774578905486564 57.284013905121476 42.035410304796955 H 0.0 **** 0.06
10388 H 21.57528985484751 58.472985308388026 42.59982665169548 H 0.0 **** 0.06
10389 H 22.353052418365706 58.67722541399764 41.01055369779752 H 0.0 **** 0.06
10390 H 23.29672853950261 58.92031847737508 42.50091210913814 H 0.0 **** 0.06
10391 C 90.71369612664566 20.455104462878126 13.450673293106036 C 0.0 **** -0.24
10392 H 91.53277409105638 20.45325242588055 14.170272389135334 H 0.0 **** 0.06
10393 H 89.93736892631975 19.76542854830572 13.783055930331216 H 0.0 **** 0.06
10394 H 91.08701091341047 20.14101049568751 12.475614293279989 H 0.0 **** 0.06
10395 H 90.29969543213997 21.46044436891026 13.374561193595412 H 0.0 **** 0.06
10396 C 107.51592970736107 76.86789676010642 42.51149596816913 C 0.0 **** -0.24
10397 H 106.75285403017568 77.59974466913303 42.77542035446197 H 0.0 **** 0.06
10398 H 108.48915477543896 77.21793991697155 42.8571558919453 H 0.0 **** 0.06
10399 H 107.5384532636053 76.74079681970056 41.42938311249736 H 0.0 **** 0.06
10400 H 107.28314701586945 75.91404074162273 42.98436154362321 H 0.0 **** 0.06
10401 C 105.81510026391379 113.42380007368375 44.88171994105812 C 0.0 **** -0.24
10402 H 105.44775218411621 112.54610420854382 44.3498399480161 H 0.0 **** 0.06
10403 H 106.90413710868424 113.39183693381267 44.925493474804796 H 0.0 **** 0.06
10404 H 105.41080453546192 113.4299681956303 45.89425187586346 H 0.0 **** 0.06
10405 H 105.49777280678686 114.32452761117419 44.357894536361584 H 0.0 **** 0.06
10406 C 58.74812175049681 15.743059488720803 43.26790746147941 C 0.0 **** -0.24
10407 H 58.36646304457412 16.59549516867213 43.831625586319205 H 0.0 **** 0.06
10408 H 59.837748723980894 15.758683332188184 43.281170058805856 H 0.0 **** 0.06
10409 H 58.395343072675246 15.801737312325997 42.238421151901775 H 0.0 **** 0.06
10410 H 58.39160813251692 14.81910871267553 43.72253030751898 H 0.0 **** 0.06
10411 C 17.99534187844813 98.03910830963869 46.61224010301382 C 0.0 **** -0.24
10412 H 18.228280836635633 97.06158696382099 47.033786531191915 H 0.0 **** 0.06
10413 H 17.010301423433305 98.35841412556277 46.95527824901348 H 0.0 **** 0.06
10414 H 17.9973002714234 97.97532785745403 45.524004284342475 H 0.0 **** 0.06
10415 H 18.74477863887256 98.7622666797229 46.93550398567959 H 0.0 **** 0.06
10416 C 81.02025819369558 36.33490623899874 34.030244417708104 C 0.0 **** -0.24
10417 H 80.31431654727297 37.16097622997995 33.941482052966876 H 0.0 **** 0.06
10418 H 80.8881434136996 35.65325979930921 33.19046960509462 H 0.0 **** 0.06
10419 H 80.83970065634566 35.801610464964426 34.96347137170608 H 0.0 **** 0.06
10420 H 82.03820527060446 36.725892048046404 34.02525747933038 H 0.0 **** 0.06
10421 C 97.30855827366926 93.22854380310255 22.562099115855347 C 0.0 **** -0.24
10422 H 96.78149673952879 94.11358194666886 22.918908036915866 H 0.0 **** 0.06
10423 H 97.97542448027554 92.86305140230695 23.34343116547342 H 0.0 **** 0.06
10424 H 97.89133169393344 93.48557003851644 21.677414067448467 H 0.0 **** 0.06
10425 H 96.5854568614335 92.45311282121523 22.30929463831967 H 0.0 **** 0.06
10426 C 100.30550135175505 73.61349536554687 84.261694586278 C 0.0 **** -0.24
10427 H 100.43860667296542 74.426461991288 84.9753269794544 H 0.0 **** 0.06
10428 H 100.50849518019933 72.66228895067468 84.75232045860074 H 0.0 **** 0.06
10429 H 100.99390683377086 73.74756247851593 83.42733862963541 H 0.0 **** 0.06
10430 H 99.28030537306779 73.61994824196785 83.89122388109854 H 0.0 **** 0.06
10431 C 48.4221862765213 36.4506207420875 26.34793246066215 C 0.0 **** -0.24
10432 H 48.017516935035246 36.33568383752828 25.34269509536486 H 0.0 **** 0.06
10433 H 49.473800898332854 36.73232022050469 26.286694332747857 H 0.0 **** 0.06
10434 H 48.32859334354629 35.508372311683516 26.887081025921077 H 0.0 **** 0.06
10435 H 47.86834640307717 37.227312552771956 26.87640313993151 H 0.0 **** 0.06
10436 C 95.57395191801965 25.899022722160993 1.8951719367649762 C 0.0 **** -0.24
10437 H 96.43504174489169 25.28240433147235 2.1541025694583773 H 0.0 **** 0.06
10438 H 94.81282562845178 25.80249597156464 2.6697113796193577 H 0.0 **** 0.06
10439 H 95.16607640211359 25.56877880952044 0.9399549598108283 H 0.0 **** 0.06
10440 H 95.88380060333145 26.94141640182241 1.8174274514269868 H 0.0 **** 0.06
10441 C 13.648698999308095 10.010912525446408 58.53228837522647 C 0.0 **** -0.24
10442 H 14.162076240984533 9.724365794295778 57.614962539607546 H 0.0 **** 0.06
10443 H 13.516552528405782 9.132477684246105 59.16427059731802 H 0.0 **** 0.06
10444 H 12.673626680068082 10.431336835855323 58.28684323428806 H 0.0 **** 0.06
10445 H 14.241562399623376 10.755405145377647 59.063274881192996 H 0.0 **** 0.06
10446 C 90.10992989674943 89.31475240071487 14.418314490418112 C 0.0 **** -0.24
10447 H 89.20439434099558 89.31567755573104 15.02470252079047 H 0.0 **** 0.06
10448 H 90.97992824914576 89.43046059933786 15.06437673236033 H 0.0 **** 0.06
10449 H 90.07216078680068 90.13896090746448 13.706923794151521 H 0.0 **** 0.06
10450 H 90.18232219109456 88.37056938027843 13.877211148246914 H 0.0 **** 0.06
10451 C 86.24284395811162 7.355404017691139 28.757934534956107 C 0.0 **** -0.24
10452 H 87.06374666250616 6.7054411420013285 29.05984336125536 H 0.0 **** 0.06
10453 H 85.95773870414712 7.992772754779043 29.59488497975535 H 0.0 **** 0.06
10454 H 85.39085222164866 6.747173588108799 28.456185102075196 H 0.0 **** 0.06
10455 H 86.5618034912356 7.976716601156149 27.920484529115527 H 0.0 **** 0.06
10456 C 69.49554799910703 50.320655733067156 67.53890839492695 C 0.0 **** -0.24
10457 H 69.97396260084349 50.053203654089685 66.59760784562937 H 0.0 **** 0.06
10458 H 69.71870987329422 51.36094773331874 67.77754273211397 H 0.0 **** 0.06
10459 H 69.87256900564753 49.676176647034225 68.334056764559 H 0.0 **** 0.06
10460 H 68.41678120078211 50.19175829068121 67.44834551255843 H 0.0 **** 0.06
10461 C 20.873921593588022 23.1042265989295 85.45486426701433 C 0.0 **** -0.24
10462 H 21.52758022066766 23.78044396452472 86.0056259450152 H 0.0 **** 0.06
10463 H 20.210439598717045 23.68488066720144 84.81181013061689 H 0.0 **** 0.06
10464 H 20.280481556482925 22.520117057311836 86.15712122793565 H 0.0 **** 0.06
10465 H 21.478001362779622 22.434568743551495 84.84231142693699 H 0.0 **** 0.06
10466 C 87.62152570187584 71.84624732565965 89.51285547746849 C 0.0 **** -0.24
10467 H 86.78395809094272 71.21127006083435 89.2242773611988 H 0.0 **** 0.06
10468 H 88.54147947073918 71.2614460943553 89.50201264499978 H 0.0 **** 0.06
10469 H 87.45211812457515 72.2392813169304 90.51527969678284 H 0.0 **** 0.06
10470 H 87.70878717869255 72.67392333879394 88.8078335551134 H 0.0 **** 0.06
10471 C 47.82986741481264 97.40578847848042 56.50652255033642 C 0.0 **** -0.24
10472 H 47.18034171847168 97.94194930343079 55.8149230424662 H 0.0 **** 0.06
10473 H 48.44105193920552 98.11963434111064 57.05823940947888 H 0.0 **** 0.06
10474 H 48.476757672513 96.73013733702822 55.94575203383763 H 0.0 **** 0.06
10475 H 47.22210305216652 96.83098564512986 57.204314829994225 H 0.0 **** 0.06
10476 C 24.938687493404245 60.38439980175945 52.67873804053255 C 0.0 **** -0.24
10477 H 25.57830062229465 60.96699901180968 53.34187013963265 H 0.0 **** 0.06
10478 H 24.40454147924345 59.63129750701602 53.25886474036702 H 0.0 **** 0.06
10479 H 25.551843350885463 59.89369110077909 51.922632326545 H 0.0 **** 0.06
10480 H 24.22191472419229 61.04658294687905 52.192380882679345 H 0.0 **** 0.06
10481 C 5.55002736745719 61.53791379671213 19.94439535340525 C 0.0 **** -0.24
10482 H 5.035496620621458 60.57768154370689 19.920857044692525 H 0.0 **** 0.06
10483 H 4.945934469355024 62.2867802168667 19.43100574511424 H 0.0 **** 0.06
10484 H 6.514844182035162 61.444328412714356 19.445748919875378 H 0.0 **** 0.06
10485 H 5.704091217127143 61.84205708470739 20.9794393737662 H 0.0 **** 0.06
10486 C 74.7537429251156 87.69693480220118 111.61241168633235 C 0.0 **** -0.24
10487 H 74.4477750910304 88.66301300313339 112.01163024147684 H 0.0 **** 0.06
10488 H 75.77466174936808 87.76626360597083 111.2358943829471 H 0.0 **** 0.06
10489 H 74.08514579627774 87.41164492266716 110.80022542278451 H 0.0 **** 0.06
10490 H 74.70838230623679 86.94583210014679 112.40169121397503 H 0.0 **** 0.06
10491 C 84.00043721008916 20.57302048681396 62.03836583638986 C 0.0 **** -0.24
10492 H 84.97484415178076 20.995294023060467 61.79476969318455 H 0.0 **** 0.06
10493 H 84.10593519297711 19.505567638840432 62.23499397458852 H 0.0 **** 0.06
10494 H 83.31909447578207 20.722015630211274 61.19911459523826 H 0.0 **** 0.06
10495 H 83.60003027603199 21.068959399951098 62.92299224904809 H 0.0 **** 0.06
10496 C 19.48102264225049 21.04208990338452 110.80213942898422 C 0.0 **** -0.24
10497 H 19.938950085656785 20.513418370535106 109.96556792169919 H 0.0 **** 0.06
10498 H 18.611921721792925 21.59726610209745 110.44798551502518 H 0.0 **** 0.06
10499 H 20.20429358350244 21.734307907413978 111.23220255888833 H 0.0 **** 0.06
10500 H 19.17006471708908 20.323070288694197 111.56004240935707 H 0.0 **** 0.06
10501 C 32.624265940934684 100.53274854048192 58.957795290565876 C 0.0 **** -0.24
10502 H 32.4696789547481 99.4542951248452 58.97891444747871 H 0.0 **** 0.06
10503 H 32.04292776089798 100.99858085984818 59.755089014810544 H 0.0 **** 0.06
10504 H 32.30229606220015 100.92718100041776 57.994390206652874 H 0.0 **** 0.06
10505 H 33.682492118782044 100.75128483053118 59.10411775795804 H 0.0 **** 0.06
10506 C 67.34700902831167 17.327533341542733 82.85035780454211 C 0.0 **** -0.24
10507 H 68.10648504024175 16.58446543035069 82.61173654871874 H 0.0 **** 0.06
10508 H 67.7409974414887 18.025318077803348 83.58924112147005 H 0.0 **** 0.06
10509 H 66.46580496280794 16.829413271839968 83.25535384042954 H 0.0 **** 0.06
10510 H 67.07264323265423 17.87094511646461 81.94585293826165 H 0.0 **** 0.06
10511 C 106.4047479243635 24.086360637267376 14.546889578866033 C 0.0 **** -0.24
10512 H 107.43301239425679 23.760176567399412 14.70121088356467 H 0.0 **** 0.06
10513 H 105.82524390078785 23.89889768192188 15.450063764929165 H 0.0 **** 0.06
10514 H 105.97005459265671 23.53413356501642 13.714108158117511 H 0.0 **** 0.06
10515 H 106.39320398369924 25.153353715876676 14.321557496853476 H 0.0 **** 0.06
10516 C 79.15527669417656 89.0826776360338 108.2314578304773 C 0.0 **** -0.24
10517 H 79.76329050775257 89.45623087726105 107.40639586250714 H 0.0 **** 0.06
10518 H 79.63318109300002 89.33543133670491 109.17790482527948 H 0.0 **** 0.06
10519 H 79.05884058006592 88.0007830927425 108.14963396587632 H 0.0 **** 0.06
10520 H 78.1662936955558 89.54044950554854 108.18907166790223 H 0.0 **** 0.06
10521 C 51.219380220179346 82.96833803608416 32.94308799855065 C 0.0 **** -0.24
10522 H 51.49052639766791 82.34775901098538 33.797657151503074 H 0.0 **** 0.06
10523 H 50.44285129479192 83.67470142209686 33.23949255126155 H 0.0 **** 0.06
10524 H 50.84582283283555 82.3344473163229 32.13894410989241 H 0.0 **** 0.06
10525 H 52.09609389038633 83.51497156376718 32.597953528798314 H 0.0 **** 0.06
10526 C 88.09995801712196 31.070723620106634 35.36957017014805 C 0.0 **** -0.24
10527 H 87.55279819009965 31.71688145003702 34.683265473182416 H 0.0 **** 0.06
10528 H 88.82058657073853 30.47449609243469 34.809543200405926 H 0.0 **** 0.06
10529 H 87.4010456048475 30.410621793909343 35.88202886141204 H 0.0 **** 0.06
10530 H 88.62626143995703 31.68273991492933 36.10208005325859 H 0.0 **** 0.06
10531 C 64.84718157465238 115.51075471854804 84.65992812315585 C 0.0 **** -0.24
10532 H 65.01273418835476 116.04314825253678 85.59610084974673 H 0.0 **** 0.06
10533 H 63.78988228987398 115.5575150364306 84.39741010182101 H 0.0 **** 0.06
10534 H 65.14631674506975 114.46907058343945 84.7770404171186 H 0.0 **** 0.06
10535 H 65.43851288322327 115.9728489543576 83.87024331847144 H 0.0 **** 0.06
10536 C 25.54303898177406 97.95364598749933 54.89457420531096 C 0.0 **** -0.24
10537 H 26.403705447487 98.32831716388597 54.34069633226471 H 0.0 **** 0.06
10538 H 25.876982157751996 97.22960340122393 55.637564269586164 H 0.0 **** 0.06
10539 H 24.848889975868843 97.47299405635346 54.20479896926224 H 0.0 **** 0.06
10540 H 25.04303342189081 98.78361139496161 55.39356700351021 H 0.0 **** 0.06
10541 C 97.05349876252814 77.5122512424652 3.6894209724942755 C 0.0 **** -0.24
10542 H 97.6896990794499 76.93844470199133 3.0165680191624347 H 0.0 **** 0.06
10543 H 96.68175726350623 78.39697915676174 3.1717079335064966 H 0.0 **** 0.06
10544 H 97.62983779250087 77.81821764703511 4.562663127064212 H 0.0 **** 0.06
10545 H 96.21191191154435 76.8961984738985 4.007569642822006 H 0.0 **** 0.06
10546 C 52.812647655844664 72.48816962017037 83.53024412514156 C 0.0 **** -0.24
10547 H 53.553419557003856 72.1873439858881 84.27045006800148 H 0.0 **** 0.06
10548 H 52.721728514959494 71.71168058943869 82.77020366280072 H 0.0 **** 0.06
10549 H 53.12491623641504 73.42121593480005 83.0615738225647 H 0.0 **** 0.06
10550 H 51.84844785083508 72.63161321516526 84.01874149656646 H 0.0 **** 0.06
10551 C 57.02145663769437 7.444208420802724 58.444106158315435 C 0.0 **** -0.24
10552 H 58.01634062362419 7.888343793065033 58.476441750836614 H 0.0 **** 0.06
10553 H 56.90810166044287 6.746977895536489 59.27451704198586 H 0.0 **** 0.06
10554 H 56.8911897279892 6.912972773903874 57.501708610545904 H 0.0 **** 0.06
10555 H 56.27079328355504 8.230587762545909 58.52442451633914 H 0.0 **** 0.06
10556 C 5.9888898732071425 54.03478203820032 52.01017260064144 C 0.0 **** -0.24
10557 H 5.94035527880402 53.9280396300278 50.92607644732683 H 0.0 **** 0.06
10558 H 6.805889115449588 53.426541232373665 52.398272231482665 H 0.0 **** 0.06
10559 H 5.048159885480175 53.70452472060731 52.44956661747371 H 0.0 **** 0.06
10560 H 6.1619706199728626 55.080669808283915 52.26455777855333 H 0.0 **** 0.06
10561 C 83.8425412099019 59.78306921602272 82.0987135945332 C 0.0 **** -0.24
10562 H 83.597410677731 59.208651503189394 81.20570225950223 H 0.0 **** 0.06
10563 H 83.5252050745967 59.230936515258485 82.98441407124443 H 0.0 **** 0.06
10564 H 83.32897935846322 60.74361740865172 82.06554245306796 H 0.0 **** 0.06
10565 H 84.91910294143986 59.94866131942276 82.1404396216405 H 0.0 **** 0.06
10566 C 39.67566601176995 92.97141529736038 97.2071426430187 C 0.0 **** -0.24
10567 H 38.59798160113121 93.0816803323421 97.32115934782618 H 0.0 **** 0.06
10568 H 40.184496202877256 93.71204545267437 97.82414651400998 H 0.0 **** 0.06
10569 H 39.94776320219407 93.12043120203651 96.1617052192309 H 0.0 **** 0.06
10570 H 39.974754874292586 91.97030611747334 97.52049760124976 H 0.0 **** 0.06
10571 C 7.733427035356684 6.228132330495896 67.21366326666549 C 0.0 **** -0.24
10572 H 8.100472219183398 5.893158696656741 66.24406107901098 H 0.0 **** 0.06
10573 H 7.034139357690723 5.4926455028479495 67.61103188722595 H 0.0 **** 0.06
10574 H 7.226441518062501 7.186694074896138 67.09924262654454 H 0.0 **** 0.06
10575 H 8.572655046490372 6.340031047582755 67.90031747388045 H 0.0 **** 0.06
10576 C 3.6810812204670924 57.746261434430636 59.70571092797433 C 0.0 **** -0.24
10577 H 4.647964682408315 57.48160915605763 60.13457285203513 H 0.0 **** 0.06
10578 H 3.5384575273691468 58.82507154893577 59.767332162888316 H 0.0 **** 0.06
10579 H 2.889116962563378 57.24207390615467 60.25988196648955 H 0.0 **** 0.06
10580 H 3.6493651744470696 57.43397754366731 58.6616152131057 H 0.0 **** 0.06
10581 C 77.71198659291775 9.081776450898815 114.07652043790434 C 0.0 **** -0.24
10582 H 76.67200183066083 9.395963017701504 113.99041331165178 H 0.0 **** 0.06
10583 H 78.32814320522183 9.936465435240734 114.3571978007339 H 0.0 **** 0.06
10584 H 78.0520645431888 8.687651975962495 113.11889271925473 H 0.0 **** 0.06
10585 H 77.79544573832592 8.307367182143793 114.8386843243612 H 0.0 **** 0.06
10586 C 102.48323460070631 109.06556083136209 31.84874693145472 C 0.0 **** -0.24
10587 H 102.85141539641126 108.2412149301853 32.46044192911968 H 0.0 **** 0.06
10588 H 102.17531969884811 109.88749923096104 32.49549238287258 H 0.0 **** 0.06
10589 H 101.63098782542 108.72721528465314 31.259296595033867 H 0.0 **** 0.06
10590 H 103.27514363176533 109.40381510194945 31.181693704961347 H 0.0 **** 0.06
10591 C 48.94292279252022 36.389692050774784 9.056664586481787 C 0.0 **** -0.24
10592 H 49.403912793301686 35.57967824786806 8.489947794591885 H 0.0 **** 0.06
10593 H 48.32594093463882 36.99348541423194 8.391642112506005 H 0.0 **** 0.06
10594 H 49.72143228539437 37.01252972218185 9.498064872561542 H 0.0 **** 0.06
10595 H 48.320723394532024 35.97012574075268 9.848100035045078 H 0.0 **** 0.06
10596 C 71.30553388605071 28.070406376270796 90.18821356204896 C 0.0 **** -0.24
10597 H 71.47387290613375 27.248990675611736 90.88452755402233 H 0.0 **** 0.06
10598 H 70.86633077047568 27.68278202351496 89.26812332545603 H 0.0 **** 0.06
10599 H 72.2565096153362 28.554085692965288 89.96168865408404 H 0.0 **** 0.06
10600 H 70.62731725752283 28.795263625654172 90.6374396584508 H 0.0 **** 0.06
10601 C 113.0105393096049 39.36293819599297 72.29216468024276 C 0.0 **** -0.24
10602 H 112.05145162694066 39.87512359413395 72.2078144012429 H 0.0 **** 0.06
10603 H 113.41679764869156 39.51643321474512 73.2933527613182 H 0.0 **** 0.06
10604 H 113.70280938673602 39.76586173810887 71.5528996908564 H 0.0 **** 0.06
10605 H 112.86965570011378 38.29671633328465 72.11665206726292 H 0.0 **** 0.06
10606 C 56.82904996604679 113.97860737702534 76.97607111382246 C 0.0 **** -0.24
10607 H 57.81765119691763 113.75037743487644 77.37495291310938 H 0.0 **** 0.06
10608 H 56.07148506460346 113.46383518250616 77.56722167647592 H 0.0 **** 0.06
10609 H 56.770047985154854 113.64530468778943 75.93970096769448 H 0.0 **** 0.06
10610 H 56.65767581089687 115.05421278854305 77.02213499609303 H 0.0 **** 0.06
10611 C 109.57503909307883 36.59462379422439 34.68501389761707 C 0.0 **** -0.24
10612 H 110.18965435694324 37.270933690906475 34.09046953680607 H 0.0 **** 0.06
10613 H 108.88765082608876 37.17593052643417 35.299624198909015 H 0.0 **** 0.06
10614 H 110.21589983935522 35.98996070137099 35.32633050003369 H 0.0 **** 0.06
10615 H 109.00700636250323 35.94304725787589 34.02160621428729 H 0.0 **** 0.06
10616 C 110.0699420765491 83.07504270391891 67.32062976548323 C 0.0 **** -0.24
10617 H 110.60812628257749 83.8034915387268 66.71461079877304 H 0.0 **** 0.06
10618 H 110.74511077480838 82.26436831706104 67.59781622930589 H 0.0 **** 0.06
10619 H 109.2348631823777 82.67198117603931 66.74817577025229 H 0.0 **** 0.06
10620 H 109.6932946673376 83.55851457338952 68.2216722783827 H 0.0 **** 0.06
10621 C 66.24834092327112 23.16089704592587 68.83053869173301 C 0.0 **** -0.24
10622 H 67.21601737581173 23.652008490629896 68.93876931117319 H 0.0 **** 0.06
10623 H 66.26915299576487 22.50876692086909 67.95672224063168 H 0.0 **** 0.06
10624 H 65.47072842957192 23.9136642689002 68.70529404936428 H 0.0 **** 0.06
10625 H 66.04107661749177 22.568428812798896 69.72203120563 H 0.0 **** 0.06
10626 C 75.75078856871016 43.257326509112204 103.44949484702616 C 0.0 **** -0.24
10627 H 74.82644463434053 43.283128282600785 104.02791131824668 H 0.0 **** 0.06
10628 H 75.53533324550597 43.50530964905266 102.40977306703707 H 0.0 **** 0.06
10629 H 76.18484623473148 42.25895623794844 103.50240704399224 H 0.0 **** 0.06
10630 H 76.4551838370536 43.982321623264795 103.85802806448694 H 0.0 **** 0.06
10631 C 36.57996113909653 53.24357459946202 79.40070206101885 C 0.0 **** -0.24
10632 H 36.80370307777379 53.03262364720976 78.35527670764864 H 0.0 **** 0.06
10633 H 37.196709700121 52.610641415909924 80.03908657448045 H 0.0 **** 0.06
10634 H 35.526938670665494 53.04000484968853 79.59558154491847 H 0.0 **** 0.06
10635 H 36.793559686121654 54.29157792802411 79.61361217549785 H 0.0 **** 0.06
10636 C 44.005064916229045 64.0153342716047 65.18871873380414 C 0.0 **** -0.24
10637 H 43.88149675179807 63.30093355133885 66.00296839828064 H 0.0 **** 0.06
10638 H 44.12494117025028 65.01684792155677 65.60109601296716 H 0.0 **** 0.06
10639 H 43.124435076431695 63.98916418079808 64.5468533416302 H 0.0 **** 0.06
10640 H 44.887667717275946 63.75328593134815 64.60656940725966 H 0.0 **** 0.06
10641 C 78.08296690578103 72.06397230307323 69.59961643940343 C 0.0 **** -0.24
10642 H 78.42443566769819 71.13233736276186 69.14865593478484 H 0.0 **** 0.06
10643 H 77.00674089247863 72.16346880421565 69.45796550557907 H 0.0 **** 0.06
10644 H 78.59198048599185 72.9033427190343 69.12671328102019 H 0.0 **** 0.06
10645 H 78.3094353246826 72.05579522228598 70.66589368639208 H 0.0 **** 0.06
10646 C 104.39198021675537 19.934119551344434 72.90431185656882 C 0.0 **** -0.24
10647 H 104.35651475111598 18.982184198373492 72.37470422882416 H 0.0 **** 0.06
10648 H 105.1863801392239 19.905408228136178 73.64928320990674 H 0.0 **** 0.06
10649 H 103.43623315527276 20.11049511329905 73.39756348271288 H 0.0 **** 0.06
10650 H 104.58762163726635 20.737117088518996 72.19427995287322 H 0.0 **** 0.06
10651 C 94.10037855516885 57.453002011154744 80.00885498738907 C 0.0 **** -0.24
10652 H 93.47829631596821 58.147551744035034 79.44467035665565 H 0.0 **** 0.06
10653 H 94.16342666064853 56.50541223200077 79.47384329197368 H 0.0 **** 0.06
10654 H 93.66028572773746 57.28843183306625 80.99201310396532 H 0.0 **** 0.06
10655 H 95.10028821315501 57.87321582748611 80.12362464780026 H 0.0 **** 0.06
10656 C 39.8790996936319 58.59316667627348 9.745861954675377 C 0.0 **** -0.24
10657 H 40.62596138835514 57.930924660258086 10.184752758964635 H 0.0 **** 0.06
10658 H 40.10881343756603 59.625312544216115 10.010966621123302 H 0.0 **** 0.06
10659 H 38.89193798293072 58.33126678341938 10.12787533302263 H 0.0 **** 0.06
10660 H 39.88932566401157 58.48530476218224 8.661815307959401 H 0.0 **** 0.06
10661 C 90.5087823900499 6.570496659854172 10.920199110534014 C 0.0 **** -0.24
10662 H 90.88891114596365 7.59151762058886 10.910859306004227 H 0.0 **** 0.06
10663 H 89.94232989681709 6.385444173919552 10.006863364567721 H 0.0 **** 0.06
10664 H 89.85902012197627 6.433234769129626 11.784922865781141 H 0.0 **** 0.06
10665 H 91.34392414796511 5.871860518430452 10.978472608416197 H 0.0 **** 0.06
10666 C 93.34436121816941 101.46586450570999 34.12871720558326 C 0.0 **** -0.24
10667 H 93.79916511010074 102.39658591661407 34.46698633858145 H 0.0 **** 0.06
10668 H 92.60691501093527 101.68254657961597 33.354504666074945 H 0.0 **** 0.06
10669 H 92.85505554244705 100.97353080309864 34.96920959355339 H 0.0 **** 0.06
10670 H 94.11575607983801 100.81149342976624 33.7221173346247 H 0.0 **** 0.06
10671 C 87.63846836131998 80.63337966220956 36.11331156549979 C 0.0 **** -0.24
10672 H 87.77272307442993 79.5846347705841 36.380316906714796 H 0.0 **** 0.06
10673 H 88.60648091001605 81.07636927419833 35.88121068281677 H 0.0 **** 0.06
10674 H 87.18539578255763 81.16595770874198 36.94922232770574 H 0.0 **** 0.06
10675 H 86.98674468177228 80.7049443284551 35.24243056286846 H 0.0 **** 0.06
10676 C 84.60601527441764 27.338952861858616 83.36807265211888 C 0.0 **** -0.24
10677 H 85.04413669632984 26.44158677251329 82.93114052009639 H 0.0 **** 0.06
10678 H 85.26654986778595 28.188199798152652 83.1900790522107 H 0.0 **** 0.06
10679 H 84.47939918388994 27.196249556214525 84.44029836488556 H 0.0 **** 0.06
10680 H 83.63658751096685 27.530539616275007 82.90951053506512 H 0.0 **** 0.06
10681 C 102.77818294435983 51.76524165446449 103.12731585579834 C 0.0 **** -0.24
10682 H 102.26023441303792 51.48359226699921 102.20985960203706 H 0.0 **** 0.06
10683 H 102.38828279566988 52.71801123431317 103.48646346655332 H 0.0 **** 0.06
10684 H 103.84571345403918 51.86154366189032 102.92746955984344 H 0.0 **** 0.06
10685 H 102.61759526554764 50.9979208098589 103.8850594281356 H 0.0 **** 0.06
10686 C 14.406590899058273 71.32403807076668 101.5940558563479 C 0.0 **** -0.24
10687 H 14.240941144552878 72.24871922950607 101.04038453467206 H 0.0 **** 0.06
10688 H 13.685697815415665 71.2533915202259 102.40735105333937 H 0.0 **** 0.06
10689 H 15.417458040364494 71.32165659779355 102.00253101073764 H 0.0 **** 0.06
10690 H 14.284500154367436 70.47334029088671 100.92311089525924 H 0.0 **** 0.06
10691 C 101.14255496245269 94.95975107323753 57.67260213257134 C 0.0 **** -0.24
10692 H 101.21492879195438 94.92247603923278 56.5849686229098 H 0.0 **** 0.06
10693 H 100.35337674810134 94.28659676729023 58.00695369908328 H 0.0 **** 0.06
10694 H 100.91075468192653 95.97723005565152 57.98621984881851 H 0.0 **** 0.06
10695 H 102.09263529401233 94.65256248675712 58.1103161153419 H 0.0 **** 0.06
10696 C 8.682072192216253 81.14270913063703 116.51313778892563 C 0.0 **** -0.24
10697 H 9.573227849821023 81.405851888346 115.94238082664123 H 0.0 **** 0.06
10698 H 8.849618347378907 81.36149197511753 117.56747752886497 H 0.0 **** 0.06
10699 H 8.473993433702901 80.07943958427234 116.39154791467843 H 0.0 **** 0.06
10700 H 7.834342036648366 81.7229514036762 116.15049832662686 H 0.0 **** 0.06
10701 C 14.400058992859073 89.30058790904073 81.53987488229541 C 0.0 **** -0.24
10702 H 14.199151034400472 89.20976339140455 82.6066104510657 H 0.0 **** 0.06
10703 H 14.165873374755307 90.31351841221027 81.21056662597226 H 0.0 **** 0.06
10704 H 13.782512023430257 88.58869506142275 80.99211646409981 H 0.0 **** 0.06
10705 H 15.452738728530647 89.09026338677509 81.34921295443618 H 0.0 **** 0.06
10706 C 27.273871545860175 31.82220755413539 28.936714757126595 C 0.0 **** -0.24
10707 H 27.464248263710488 30.750403012705796 29.000407389508098 H 0.0 **** 0.06
10708 H 26.207473474682843 31.993910459023056 28.78995223232357 H 0.0 **** 0.06
10709 H 27.829096856311992 32.23912333755925 28.09582230692706 H 0.0 **** 0.06
10710 H 27.596796718095447 32.30323116224905 29.85978710805665 H 0.0 **** 0.06
10711 C 106.63314369708866 22.724272618039095 40.826073824558414 C 0.0 **** -0.24
10712 H 106.61584310397677 23.252770114027108 41.77919766156557 H 0.0 **** 0.06
10713 H 105.63372356609565 22.732109388417797 40.388946770745584 H 0.0 **** 0.06
10714 H 106.95005648966972 21.69477768055204 40.98890301622133 H 0.0 **** 0.06
10715 H 107.33031286548339 23.217256339683438 40.15041117151182 H 0.0 **** 0.06
10716 C 45.92689288087777 32.6339638755762 91.10730529138644 C 0.0 **** -0.24
10717 H 46.25756397513479 32.10919670855313 90.21017425403215 H 0.0 **** 0.06
10718 H 44.84084753728382 32.58127501862282 91.17888964872154 H 0.0 **** 0.06
10719 H 46.23882845134989 33.67698877956994 91.05240336463984 H 0.0 **** 0.06
10720 H 46.37291326210948 32.16648897038948 91.98582965969428 H 0.0 **** 0.06
10721 C 70.38929141649555 39.38129703153433 102.37465642800643 C 0.0 **** -0.24
10722 H 69.31695352492207 39.34023336202176 102.56637288787644 H 0.0 **** 0.06
10723 H 70.92547708891459 39.44832114286541 103.32123904609466 H 0.0 **** 0.06
10724 H 70.61586545976914 40.255817917236755 101.76503739232729 H 0.0 **** 0.06
10725 H 70.69788565725938 38.47943604822265 101.8445173751604 H 0.0 **** 0.06
10726 C 110.29865397070654 12.104100917220734 60.089476099597015 C 0.0 **** -0.24
10727 H 110.13043619614143 11.228323548979077 59.46348992473816 H 0.0 **** 0.06
10728 H 110.47644790481891 12.974235505921598 59.45781316816481 H 0.0 **** 0.06
10729 H 111.1668889116977 11.93335590347425 60.72677136280098 H 0.0 **** 0.06
10730 H 109.42102538156877 12.279672425852226 60.712132271341964 H 0.0 **** 0.06
10731 C 54.14821332023163 28.30616683493917 89.72210795295888 C 0.0 **** -0.24
10732 H 54.53921780784859 29.30557932982658 89.91064195998064 H 0.0 **** 0.06
10733 H 53.162922416397095 28.208806650805478 90.1780529037512 H 0.0 **** 0.06
10734 H 54.82302744625824 27.565796713429783 90.15115447114749 H 0.0 **** 0.06
10735 H 54.068919575409495 28.14465591432362 88.64647336677237 H 0.0 **** 0.06
10736 C 67.57181055679476 24.137123501847668 75.06046860394372 C 0.0 **** -0.24
10737 H 67.68618049686478 23.88640758770606 76.11454779914561 H 0.0 **** 0.06
10738 H 66.51967602203985 24.31992830371985 74.84227308307527 H 0.0 **** 0.06
10739 H 67.930737168099 23.308609231402386 74.44950970045767 H 0.0 **** 0.06
10740 H 68.15066401410397 25.032528917234004 74.83456427028244 H 0.0 **** 0.06
10741 C 96.22341155467828 108.27012728394286 15.563258652382729 C 0.0 **** -0.24
10742 H 97.30250602996387 108.29324783411957 15.71729616058541 H 0.0 **** 0.06
10743 H 95.73626741801047 107.89798646882409 16.464803325088496 H 0.0 **** 0.06
10744 H 95.98929087257301 107.61349450141194 14.725242024259547 H 0.0 **** 0.06
10745 H 95.86644814121604 109.27767396890637 15.346507992401722 H 0.0 **** 0.06
10746 C 106.97222122965181 92.59175291710562 68.94739650416011 C 0.0 **** -0.24
10747 H 106.2766375084856 93.4254153042225 69.04189124734845 H 0.0 **** 0.06
10748 H 107.60372782217314 92.5429155823876 69.83494388397665 H 0.0 **** 0.06
10749 H 107.59653327729302 92.73870957653031 68.06534874679417 H 0.0 **** 0.06
10750 H 106.41355486750243 91.66192326527158 68.84608701281817 H 0.0 **** 0.06
10751 C 86.68709191631518 27.59712675841564 67.52138572955641 C 0.0 **** -0.24
10752 H 87.18967068131525 28.17520850322157 66.74610511558407 H 0.0 **** 0.06
10753 H 85.63484839343903 27.878609281768888 67.56046405531131 H 0.0 **** 0.06
10754 H 87.15483775176784 27.799631931713407 68.48498339757714 H 0.0 **** 0.06
10755 H 86.77101760823217 26.534122013374656 67.29367670400572 H 0.0 **** 0.06
10756 C 29.858034033393217 22.98444504171016 92.41322546790235 C 0.0 **** -0.24
10757 H 29.058576422197348 23.56926735053321 92.86804450324502 H 0.0 **** 0.06
10758 H 30.17340202595814 23.460568250099413 91.4849153506463 H 0.0 **** 0.06
10759 H 29.496845289229263 21.9788200645132 92.20181363108537 H 0.0 **** 0.06
10760 H 30.704096031506886 22.930305397015616 93.0991241657639 H 0.0 **** 0.06
10761 C 108.7810058208873 47.15607392023222 8.785387094261921 C 0.0 **** -0.24
10762 H 108.4656862475733 46.190397286965585 9.1808478206502 H 0.0 **** 0.06
10763 H 108.97708269356217 47.83996815418823 9.61123545002161 H 0.0 **** 0.06
10764 H 107.9930298142406 47.565243066610144 8.153576716473395 H 0.0 **** 0.06
10765 H 109.68884230597222 47.02826789138795 8.195223099415102 H 0.0 **** 0.06
10766 C 41.29137657193888 105.95309883835614 62.53182471846617 C 0.0 **** -0.24
10767 H 41.1554041711302 104.88993987394352 62.73095911543163 H 0.0 **** 0.06
10768 H 41.723986066295225 106.4340950121659 63.410097895881734 H 0.0 **** 0.06
10769 H 40.32564942337852 106.40634170775994 62.307619557693386 H 0.0 **** 0.06
10770 H 41.959363691175554 106.08003766793905 61.680826707086 H 0.0 **** 0.06
10771 C 83.15486086682773 89.79268961873919 95.10096230202194 C 0.0 **** -0.24
10772 H 82.54935508277691 89.82542301308962 94.19520061357389 H 0.0 **** 0.06
10773 H 82.87357481838029 88.92298697524524 95.6953405284344 H 0.0 **** 0.06
10774 H 82.98658506343435 90.69996629462642 95.68237036350533 H 0.0 **** 0.06
10775 H 84.2084552685825 89.72401031302755 94.83136089677618 H 0.0 **** 0.06
10776 C 8.14343532717917 64.90340009177095 109.85153664861889 C 0.0 **** -0.24
10777 H 8.578526440702895 64.27038451534992 110.62567942505726 H 0.0 **** 0.06
10778 H 8.888654623937523 65.09636325170555 109.07891483502132 H 0.0 **** 0.06
10779 H 7.82403592958703 65.84847704739838 110.29260425379724 H 0.0 **** 0.06
10780 H 7.284215561325599 64.3996012860797 109.41110163210826 H 0.0 **** 0.06
10781 C 6.026907878490276 30.428463612514264 3.5589892902592624 C 0.0 **** -0.24
10782 H 5.335231088210337 31.271340457336095 3.5761901206406606 H 0.0 **** 0.06
10783 H 5.469197751984165 29.503712717405364 3.4084130402051898 H 0.0 **** 0.06
10784 H 6.5640729089852154 30.379734705529444 4.506620672557503 H 0.0 **** 0.06
10785 H 6.7387389471721235 30.560146148681554 2.7439075630756378 H 0.0 **** 0.06
10786 C 111.23431858200605 48.85101784745983 51.60801369109238 C 0.0 **** -0.24
10787 H 110.99365418089758 48.10969690445043 50.84671886683567 H 0.0 **** 0.06
10788 H 112.04554845751333 49.48613915396837 51.25249580595943 H 0.0 **** 0.06
10789 H 111.54254079340485 48.34516530715402 52.52359454686541 H 0.0 **** 0.06
10790 H 110.35497059667696 49.46288867643483 51.8100537745333 H 0.0 **** 0.06
10791 C 21.627162727682872 84.6931693179107 47.06815887991656 C 0.0 **** -0.24
10792 H 21.453876904904348 83.61916714992805 47.12623866313617 H 0.0 **** 0.06
10793 H 22.668390862576842 84.87913438729765 46.80371235914053 H 0.0 **** 0.06
10794 H 21.410291621356265 85.1490201463435 48.03352245536443 H 0.0 **** 0.06
10795 H 20.97686492919763 85.12528755808495 46.307318826014 H 0.0 **** 0.06
10796 C 85.29241634615067 18.643749568223996 41.827887160482504 C 0.0 **** -0.24
10797 H 85.63693343400183 18.850188403277087 40.81456887384914 H 0.0 **** 0.06
10798 H 84.50724345715952 17.88772260080114 41.79681018248482 H 0.0 **** 0.06
10799 H 84.90115118960324 19.55846759810119 42.2720553821988 H 0.0 **** 0.06
10800 H 86.12694837769743 18.277365923307684 42.42649832924215 H 0.0 **** 0.06
10801 C 53.664808291278234 109.49036456003091 16.855462276331167 C 0.0 **** -0.24
10802 H 52.851659295773175 108.77093142748278 16.95115258638785 H 0.0 **** 0.06
10803 H 53.54353968330952 110.05498752266132 15.930760796031336 H 0.0 **** 0.06
10804 H 54.61834957704866 108.96167367672298 16.836279191275878 H 0.0 **** 0.06
10805 H 53.64640526208183 110.17500832989451 17.704074830439538 H 0.0 **** 0.06
10806 C 47.17464576844408 98.45333860454755 101.71047652968693 C 0.0 **** -0.24
10807 H 47.095032499932785 99.49070500319013 101.38502351581934 H 0.0 **** 0.06
10808 H 48.10142820026178 98.31702117680919 102.2672994968434 H 0.0 **** 0.06
10809 H 47.174658261658266 97.79891340572146 100.83843429407688 H 0.0 **** 0.06
10810 H 46.32723511114358 98.20637658881671 102.34979483048176 H 0.0 **** 0.06
10811 C 82.13278707524836 102.55827751725826 27.571852010571476 C 0.0 **** -0.24
10812 H 81.58392972957628 103.48779769194303 27.72342651851335 H 0.0 **** 0.06
10813 H 83.07048313419986 102.59474143434366 28.12569441151198 H 0.0 **** 0.06
10814 H 82.34164235031017 102.42921265218953 26.5093988318419 H 0.0 **** 0.06
10815 H 81.5331577179559 101.71979875571313 27.92720818502122 H 0.0 **** 0.06
10816 C 35.14249831157669 113.37910944675978 106.19109446857519 C 0.0 **** -0.24
10817 H 34.75723469888542 112.37263769511777 106.35537941797963 H 0.0 **** 0.06
10818 H 35.96554591497376 113.56996486676852 106.88137625546486 H 0.0 **** 0.06
10819 H 34.34761314854992 114.10424962337981 106.36398818103322 H 0.0 **** 0.06
10820 H 35.500582487783795 113.46829127584333 105.1654667151189 H 0.0 **** 0.06
10821 C 78.6237462319869 77.26140470716325 88.90172934172892 C 0.0 **** -0.24
10822 H 77.60478513269797 76.87836950794451 88.84057121503233 H 0.0 **** 0.06
10823 H 78.91627890071243 77.67006622657618 87.9343321198123 H 0.0 **** 0.06
10824 H 79.3004204846192 76.45104057294125 89.1744195314435 H 0.0 **** 0.06
10825 H 78.67162309272186 78.04462167663056 89.65719069341105 H 0.0 **** 0.06
10826 C 23.932454056283603 6.12543841336155 31.972235872891687 C 0.0 **** -0.24
10827 H 24.658833497453514 6.935959522852556 31.92885029817242 H 0.0 **** 0.06
10828 H 23.245602951449513 6.206196405188109 31.12964185413839 H 0.0 **** 0.06
10829 H 23.372612445233983 6.189379409031744 32.905496236962854 H 0.0 **** 0.06
10830 H 24.453041107714483 5.168817556837794 31.925936475402615 H 0.0 **** 0.06
10831 C 86.59078583376947 15.673938808028687 68.18840750903675 C 0.0 **** -0.24
10832 H 86.647866306791 16.58049796152762 68.79037449275077 H 0.0 **** 0.06
10833 H 87.45230252680972 15.62385134063176 67.52271224466901 H 0.0 **** 0.06
10834 H 85.67502086280342 15.686712323549372 67.5980268893098 H 0.0 **** 0.06
10835 H 86.58701212400649 14.80283516372273 68.84467517373369 H 0.0 **** 0.06
10836 C 4.127488259319904 95.18491454351798 39.87455671591249 C 0.0 **** -0.24
10837 H 4.65875236260726 95.88748998674478 39.23267654752903 H 0.0 **** 0.06
10838 H 4.5654481310113795 95.20171709537394 40.87294934178208 H 0.0 **** 0.06
10839 H 4.209503272696239 94.180611840399 39.45866779367206 H 0.0 **** 0.06
10840 H 3.0770430422213337 95.46962046329125 39.93278332198486 H 0.0 **** 0.06
10841 C 45.41686203676025 114.64373228360637 67.51082710349519 C 0.0 **** -0.24
10842 H 46.13838623611062 114.06876549992313 66.93045223511999 H 0.0 **** 0.06
10843 H 45.34188188838726 114.22569938944054 68.5143819882993 H 0.0 **** 0.06
10844 H 44.4419329673255 114.60032543693865 67.02453895462901 H 0.0 **** 0.06
10845 H 45.74669454575576 115.68137465346837 67.57276146096495 H 0.0 **** 0.06
10846 C 98.7951044634865 67.35306585222057 113.88831402054177 C 0.0 **** -0.24
10847 H 99.67174888511309 67.88138873857898 113.51347478441232 H 0.0 **** 0.06
10848 H 99.10052508444343 66.39251148606323 114.30560604534043 H 0.0 **** 0.06
10849 H 98.09312777569664 67.1878844201 113.07101677632389 H 0.0 **** 0.06
10850 H 98.31566855654745 67.95082217053107 114.66436533148655 H 0.0 **** 0.06
10851 C 6.207670324586786 25.866859468204865 113.55674525722142 C 0.0 **** -0.24
10852 H 6.516167185839475 24.85976301609682 113.83790785986335 H 0.0 **** 0.06
10853 H 6.364920429820721 26.542978982123856 114.3975840154981 H 0.0 **** 0.06
10854 H 5.151377579712376 25.86016020982929 113.28692726064655 H 0.0 **** 0.06
10855 H 6.798423687074719 26.20289417888256 112.704049440857 H 0.0 **** 0.06
10856 C 2.3263073478855176 59.967201864812665 103.18174226268928 C 0.0 **** -0.24
10857 H 3.353200000259278 59.7251769952517 102.90893761881179 H 0.0 **** 0.06
10858 H 1.6514229239504346 59.62671383591436 102.39695258706624 H 0.0 **** 0.06
10859 H 2.227638785935312 61.04614796901612 103.30340498031782 H 0.0 **** 0.06
10860 H 2.073240327434604 59.47203971749843 104.11975002036107 H 0.0 **** 0.06
10861 C 29.56948694686534 81.74922356405307 84.80374356164833 C 0.0 **** -0.24
10862 H 29.88190681761779 82.76227565375353 85.0538678444633 H 0.0 **** 0.06
10863 H 30.276275131567843 81.31620779486849 84.09545138513926 H 0.0 **** 0.06
10864 H 28.57570232553087 81.7752256057314 84.3554009976113 H 0.0 **** 0.06
10865 H 29.544427100567958 81.14197847224227 85.70906583518598 H 0.0 **** 0.06
10866 C 85.72848068642992 38.23339296201391 8.028599651175103 C 0.0 **** -0.24
10867 H 85.10588286211248 38.955180901027404 8.557799157761423 H 0.0 **** 0.06
10868 H 86.75923174654451 38.323885771522896 8.371228115585158 H 0.0 **** 0.06
10869 H 85.68281744310988 38.432030953572564 6.957702458669775 H 0.0 **** 0.06
10870 H 85.3647652255901 37.22583732352109 8.228103072692559 H 0.0 **** 0.06
10871 C 27.27293522487102 103.7668064419293 83.10318804464785 C 0.0 **** -0.24
10872 H 27.194399064160926 103.18629953334272 82.18306801822558 H 0.0 **** 0.06
10873 H 27.135769701848766 104.8248364871798 82.8765802459308 H 0.0 **** 0.06
10874 H 28.257992167511304 103.61393127454639 83.54564713662799 H 0.0 **** 0.06
10875 H 26.50482258869019 103.44152993908472 83.80357582158871 H 0.0 **** 0.06
10876 C 18.248816837893543 38.54071876151764 40.138872399715325 C 0.0 **** -0.24
10877 H 17.68646676820387 37.61497233645281 40.25861333114948 H 0.0 **** 0.06
10878 H 18.976227717433915 38.63084727166438 40.94635509147966 H 0.0 **** 0.06
10879 H 17.56367461074089 39.38783690521163 40.169153340719475 H 0.0 **** 0.06
10880 H 18.76816659517712 38.52863713515501 39.181011874119676 H 0.0 **** 0.06
10881 C 94.81986278218685 55.52907731112912 38.71673355373841 C 0.0 **** -0.24
10882 H 94.14057259386539 55.61220942269013 39.565438973162905 H 0.0 **** 0.06
10883 H 94.80456158628488 54.50647024052836 38.33855942918094 H 0.0 **** 0.06
10884 H 95.83118759546548 55.783807232999315 39.03494386447004 H 0.0 **** 0.06
10885 H 94.50366834170455 56.213371580630884 37.92957513289746 H 0.0 **** 0.06
10886 C 58.18235337351208 86.91338316000014 90.62438965082808 C 0.0 **** -0.24
10887 H 58.68492004188894 87.28389557194296 91.51835459159344 H 0.0 **** 0.06
10888 H 57.82898573889576 87.7565635080509 90.03093689343609 H 0.0 **** 0.06
10889 H 57.33450695278642 86.29368135988528 90.91692872756647 H 0.0 **** 0.06
10890 H 58.88086632703048 86.32012341234466 90.0344121240868 H 0.0 **** 0.06
10891 C 78.64242196169957 75.6569443018222 5.136699233060613 C 0.0 **** -0.24
10892 H 77.91781539625174 75.68208079606137 4.322805230331658 H 0.0 **** 0.06
10893 H 79.65041857151951 75.72389795572457 4.727550117410539 H 0.0 **** 0.06
10894 H 78.5356587314892 74.72443018838399 5.6910321796552825 H 0.0 **** 0.06
10895 H 78.46527163555206 76.49966345742442 5.80608644617438 H 0.0 **** 0.06
10896 C 92.31114157968446 64.7570838820927 77.78055154499359 C 0.0 **** -0.24
10897 H 91.9971796125676 65.6213435083761 78.36476132948039 H 0.0 **** 0.06
10898 H 91.48324775695079 64.05221159687565 77.70215599474588 H 0.0 **** 0.06
10899 H 93.15583341013348 64.27426748487429 78.27120209270964 H 0.0 **** 0.06
10900 H 92.6078052696837 65.08104644892333 76.78287630321654 H 0.0 **** 0.06
10901 C 61.7555963302022 41.9516833719391 28.74487066898834 C 0.0 **** -0.24
10902 H 62.814207628882265 42.03259658638646 28.98967687631597 H 0.0 **** 0.06
10903 H 61.523378903794814 42.61429075392961 27.91126556101443 H 0.0 **** 0.06
10904 H 61.15930229535572 42.23546211498236 29.612431071686444 H 0.0 **** 0.06
10905 H 61.525063965069414 40.92215681266193 28.467032617024586 H 0.0 **** 0.06
10906 C 56.80709743418243 53.673904931391945 72.09933639276252 C 0.0 **** -0.24
10907 H 55.79407009035693 53.92753224934975 72.41400579800398 H 0.0 **** 0.06
10908 H 56.76307709935622 52.990104936922705 71.25066340537151 H 0.0 **** 0.06
10909 H 57.334871069319796 53.195700614607404 72.92521208314395 H 0.0 **** 0.06
10910 H 57.3339797052876 54.58182157390229 71.8077247652322 H 0.0 **** 0.06
10911 C 103.56231428667354 38.15025033879019 58.26735946593322 C 0.0 **** -0.24
10912 H 103.2660045558832 38.0423025945789 57.223356176540726 H 0.0 **** 0.06
10913 H 102.83783498936728 38.77860217207672 58.78703126869119 H 0.0 **** 0.06
10914 H 104.54777405286887 38.613654522446325 58.31897925277004 H 0.0 **** 0.06
10915 H 103.59690331255368 37.16821371773872 58.73855009727149 H 0.0 **** 0.06
10916 C 7.465114102801266 59.395012473794935 39.21636028968855 C 0.0 **** -0.24
10917 H 7.939979155030898 59.41153161760292 38.23542132113752 H 0.0 **** 0.06
10918 H 8.212557557984809 59.16923702817934 39.97774111882618 H 0.0 **** 0.06
10919 H 6.68860596172604 58.63067662829209 39.23161633847833 H 0.0 **** 0.06
10920 H 7.020557838916886 60.36912216264167 39.421091886938484 H 0.0 **** 0.06
10921 C 85.59507369701629 56.54698435315717 58.99480924877934 C 0.0 **** -0.24
10922 H 86.48924888945288 56.84857969318483 59.54053624500637 H 0.0 **** 0.06
10923 H 85.80793820234885 56.53728089866655 57.92550968761284 H 0.0 **** 0.06
10924 H 84.78983103276477 57.2518741613533 59.1994418965478 H 0.0 **** 0.06
10925 H 85.29393107726418 55.548640786820584 59.31520950387186 H 0.0 **** 0.06
10926 C 101.92088466729723 29.99873325677393 86.26870253851095 C 0.0 **** -0.24
10927 H 100.99441051240649 29.6603847457485 85.80416306617226 H 0.0 **** 0.06
10928 H 101.79020955824544 31.01379154093044 86.64340194397786 H 0.0 **** 0.06
10929 H 102.72340008621805 29.9848076529764 85.52994266219432 H 0.0 **** 0.06
10930 H 102.17636637676785 29.335798495736668 87.09549730020845 H 0.0 **** 0.06
10931 C 55.72464883647666 107.66820930161646 112.06647416297463 C 0.0 **** -0.24
10932 H 55.75736010741599 108.69809445727408 111.7139328416554 H 0.0 **** 0.06
10933 H 54.7102199564971 107.4234238269278 112.38258985585495 H 0.0 **** 0.06
10934 H 56.4057488684241 107.55034302194946 112.90915811349618 H 0.0 **** 0.06
10935 H 56.025884041647885 106.99860952016093 111.26007753389558 H 0.0 **** 0.06
10936 C 79.956482550848 103.19941115761023 87.97591510309758 C 0.0 **** -0.24
10937 H 79.101913065845 103.87293780647607 88.0363864495732 H 0.0 **** 0.06
10938 H 79.82068150198799 102.5158088081647 87.13722092180205 H 0.0 **** 0.06
10939 H 80.0344221233081 102.62865475592824 88.90166753325391 H 0.0 **** 0.06
10940 H 80.86659664006135 103.78043558094302 87.82915717100522 H 0.0 **** 0.06
10941 C 47.20111944387702 32.22938094910259 41.38042723237285 C 0.0 **** -0.24
10942 H 46.910822811164564 31.518931846618813 40.60564469998772 H 0.0 **** 0.06
10943 H 47.12282075968611 33.24458776300864 40.98922459212409 H 0.0 **** 0.06
10944 H 48.22935708366897 32.03465085470637 41.68508032381362 H 0.0 **** 0.06
10945 H 46.540195149409584 32.11849481219406 42.24014073927606 H 0.0 **** 0.06
10946 C 86.4582477168849 83.27352730200465 113.148028455315 C 0.0 **** -0.24
10947 H 87.03993502842673 82.45267852881301 112.72890304215227 H 0.0 **** 0.06
10948 H 85.54169865194194 82.88010437061405 113.58862376183235 H 0.0 **** 0.06
10949 H 86.20720372575124 83.9810529801806 112.35745187777222 H 0.0 **** 0.06
10950 H 87.04436187351473 83.77863308419086 113.91532779017413 H 0.0 **** 0.06
10951 C 24.349201734637973 80.3153020369709 54.207160904856536 C 0.0 **** -0.24
10952 H 24.35262019337563 79.2605146134618 54.48280160854324 H 0.0 **** 0.06
10953 H 24.70079929535825 80.42295797553453 53.18040855078925 H 0.0 **** 0.06
10954 H 25.008691017450815 80.86748040052618 54.877549577529756 H 0.0 **** 0.06
10955 H 23.336635110073075 80.70811538527849 54.288698389995 H 0.0 **** 0.06
10956 C 7.523499466063386 34.94370487799159 81.32060759288117 C 0.0 **** -0.24
10957 H 6.618899368495226 35.20454059409859 80.77212395239275 H 0.0 **** 0.06
10958 H 7.867194196871019 35.80877271271878 81.88791222907662 H 0.0 **** 0.06
10959 H 8.29911083214757 34.6369461404157 80.61911772750142 H 0.0 **** 0.06
10960 H 7.30852756256272 34.12219253641937 82.00509981855296 H 0.0 **** 0.06
10961 C 27.68228527447647 47.134226712667186 87.66888612104151 C 0.0 **** -0.24
10962 H 26.66310374090685 47.162719925756164 87.28311401365625 H 0.0 **** 0.06
10963 H 27.927007060718438 46.11683921189004 87.97359560420426 H 0.0 **** 0.06
10964 H 27.764279536137423 47.800596581608744 88.52789318547713 H 0.0 **** 0.06
10965 H 28.373807215877733 47.458179277014125 86.89120681949757 H 0.0 **** 0.06
10966 C 39.41277922045157 74.99771906818498 69.3974264220027 C 0.0 **** -0.24
10967 H 40.024268872882544 75.56222426948133 68.69360383127542 H 0.0 **** 0.06
10968 H 38.996419193085956 75.6760470861291 70.14178276203415 H 0.0 **** 0.06
10969 H 40.02754061572733 74.24669757941777 69.89208188915961 H 0.0 **** 0.06
10970 H 38.601671978873014 74.50677183647116 68.8592750971124 H 0.0 **** 0.06
10971 C 68.28911241153239 26.832863820472255 67.98864662370471 C 0.0 **** -0.24
10972 H 68.06030536718319 27.877882152625517 67.77840386611132 H 0.0 **** 0.06
10973 H 68.1517518442831 26.638823005714585 69.05222087088458 H 0.0 **** 0.06
10974 H 69.32183483488637 26.623985431829652 67.71049712053212 H 0.0 **** 0.06
10975 H 67.62061056100518 26.192076196367537 67.4127651061051 H 0.0 **** 0.06
10976 C 15.595581199088997 31.760369441968493 80.98125853296773 C 0.0 **** -0.24
10977 H 15.171485162711498 32.204992699814454 80.08157713920818 H 0.0 **** 0.06
10978 H 16.604115568748092 32.14484961071403 81.13490884296257 H 0.0 **** 0.06
10979 H 15.633104165848138 30.67646492498008 80.86749098925407 H 0.0 **** 0.06
10980 H 14.97531848130869 32.013870414223604 81.84040539256418 H 0.0 **** 0.06
10981 C 87.31309482235173 105.90575180937688 46.95120345691336 C 0.0 **** -0.24
10982 H 87.49616354029416 104.89376348807124 46.589292588024904 H 0.0 **** 0.06
10983 H 88.26216776148453 106.37336143995398 47.21537351133597 H 0.0 **** 0.06
10984 H 86.6698196484706 105.86697244959646 47.829291764109115 H 0.0 **** 0.06
10985 H 86.82664818693331 106.48800019529165 46.16854998420379 H 0.0 **** 0.06
10986 C 40.12468860782798 94.37835418957863 88.01059993878769 C 0.0 **** -0.24
10987 H 39.69972341964754 95.32511083535266 87.677452227049 H 0.0 **** 0.06
10988 H 39.32154465435049 93.66291645749584 88.18852023718742 H 0.0 **** 0.06
10989 H 40.68274617727167 94.53449542764258 88.93362518749336 H 0.0 **** 0.06
10990 H 40.79347139089809 93.99089797594291 87.24217738372445 H 0.0 **** 0.06
10991 C 1.9403593880838628 50.00852967053771 53.45046048258695 C 0.0 **** -0.24
10992 H 2.7289562035752084 50.57667192615747 52.95717719760461 H 0.0 **** 0.06
10993 H 2.384522793886987 49.30875684420667 54.158547228767276 H 0.0 **** 0.06
10994 H 1.3694124697988173 49.456747138457985 52.703630097072704 H 0.0 **** 0.06
10995 H 1.27747022305482 50.691804979542155 53.98157985531353 H 0.0 **** 0.06
10996 C 52.47656860326251 96.15597282668463 10.874150513849088 C 0.0 **** -0.24
10997 H 52.73184369221545 97.01041735941504 10.247510965135689 H 0.0 **** 0.06
10998 H 53.29317336060225 95.43392395411337 10.85389982181762 H 0.0 **** 0.06
10999 H 51.567771016998336 95.68830586119046 10.495250095535425 H 0.0 **** 0.06
11000 H 52.3131520136013 96.49250001322241 11.897237192776402 H 0.0 **** 0.06
11001 C 93.69907130656725 39.27140571076649 110.63309011483958 C 0.0 **** -0.24
11002 H 92.64154792171666 39.50119864244758 110.7584072823849 H 0.0 **** 0.06
11003 H 94.08558755345044 39.80421364903836 109.76338904697815 H 0.0 **** 0.06
11004 H 93.82255382125982 38.19859110307834 110.48672474216967 H 0.0 **** 0.06
11005 H 94.24701639353103 39.58215296420653 111.52310547411884 H 0.0 **** 0.06
11006 C 111.12459912791884 24.27093722805276 72.72363649152845 C 0.0 **** -0.24
11007 H 112.14101492659476 24.554015482412467 72.99919347859614 H 0.0 **** 0.06
11008 H 111.15254196188062 23.635751869055184 71.83783303213318 H 0.0 **** 0.06
11009 H 110.54447020448099 25.168437921761978 72.51018655797884 H 0.0 **** 0.06
11010 H 110.66374200338521 23.726778622029315 73.54765108632705 H 0.0 **** 0.06
11011 C 30.543714364009176 17.61055246684154 113.52988871747895 C 0.0 **** -0.24
11012 H 29.850612159201575 16.768198055281346 113.53785460168717 H 0.0 **** 0.06
11013 H 30.199862212448608 18.356983727124828 112.81421001368591 H 0.0 **** 0.06
11014 H 31.535357949757895 17.260699157430167 113.2437880406078 H 0.0 **** 0.06
11015 H 30.587627415468603 18.052680856838663 114.52502090579928 H 0.0 **** 0.06
11016 C 14.839990200341873 101.17734446917004 76.9635089579262 C 0.0 **** -0.24
11017 H 14.165255874341 102.01998219789112 77.11725635308403 H 0.0 **** 0.06
11018 H 15.680272435970323 101.49435487884915 76.34456128592271 H 0.0 **** 0.06
11019 H 14.304217335433577 100.36994621896991 76.46460570742465 H 0.0 **** 0.06
11020 H 15.209523529600915 100.82848341483248 77.92741715197315 H 0.0 **** 0.06
11021 C 77.57076298460885 7.310841341797385 24.85963202447641 C 0.0 **** -0.24
11022 H 78.59712347709154 7.635462319953106 24.68759324369529 H 0.0 **** 0.06
11023 H 77.57408820944647 6.396567131682161 25.452976417683033 H 0.0 **** 0.06
11024 H 77.08537682746277 7.121577103375415 23.901648020006462 H 0.0 **** 0.06
11025 H 77.02764460514749 8.090231233271595 25.393593404764886 H 0.0 **** 0.06
11026 C 116.51915560081703 73.94472895020954 69.60844056883741 C 0.0 **** -0.24
11027 H 116.82317206935434 74.7138961935106 70.31843965779251 H 0.0 **** 0.06
11028 H 115.78417556038292 74.35832888142573 68.91819541027883 H 0.0 **** 0.06
11029 H 116.08068016216373 73.10530414448402 70.14722549548901 H 0.0 **** 0.06
11030 H 117.39092622635899 73.60326493388817 69.04971227584974 H 0.0 **** 0.06
11031 C 56.858721579493135 30.0866959634547 63.31008058144795 C 0.0 **** -0.24
11032 H 57.41901323862146 30.296607267088007 62.398831174407206 H 0.0 **** 0.06
11033 H 56.139721868176366 29.289731652033254 63.11798341948213 H 0.0 **** 0.06
11034 H 56.33081827100955 30.985822818716997 63.62720348455048 H 0.0 **** 0.06
11035 H 57.547068414044816 29.77364181178143 64.09488035044976 H 0.0 **** 0.06
11036 C 2.4265266475335068 105.92811282101903 51.79469230676989 C 0.0 **** -0.24
11037 H 3.346064514458277 106.4980517016412 51.65993038938544 H 0.0 **** 0.06
11038 H 2.043074658566752 105.62222943411317 50.82120892182101 H 0.0 **** 0.06
11039 H 1.6850239118429329 106.54858742139112 52.298393560836786 H 0.0 **** 0.06
11040 H 2.6320565704087073 105.0452218672227 52.39868807634153 H 0.0 **** 0.06
11041 C 114.81705502045098 47.81665038811079 43.02279327533358 C 0.0 **** -0.24
11042 H 114.3203763381989 48.368444875520595 42.22394650255072 H 0.0 **** 0.06
11043 H 115.89159969544104 47.99141197501402 42.970802101164395 H 0.0 **** 0.06
11044 H 114.615266257896 46.750843439742 42.90715625024174 H 0.0 **** 0.06
11045 H 114.43839564146502 48.155141190137954 43.98760831407495 H 0.0 **** 0.06
11046 C 31.762430707848495 10.592986929478116 37.57704830886676 C 0.0 **** -0.24
11047 H 31.318386519751357 11.047433635495906 36.69108727927563 H 0.0 **** 0.06
11048 H 31.010790248274844 10.0009618582734 38.0979569615456 H 0.0 **** 0.06
11049 H 32.13244052467272 11.375998511912371 38.239494235593284 H 0.0 **** 0.06
11050 H 32.59064220668404 9.950048291123949 37.27849579211618 H 0.0 **** 0.06
11051 C 17.1979994431548 37.85195336722475 5.579062869468711 C 0.0 **** -0.24
11052 H 18.271082006636647 37.912585925775176 5.760778240045232 H 0.0 **** 0.06
11053 H 17.006807783710514 37.1477591531831 4.767923944047514 H 0.0 **** 0.06
11054 H 16.821399153136696 38.83670582357283 5.301740299061802 H 0.0 **** 0.06
11055 H 16.694831058513074 37.511410166717724 6.482796094298045 H 0.0 **** 0.06
11056 C 39.261608671787144 32.99247615710493 66.82398197572778 C 0.0 **** -0.24
11057 H 40.22666849567145 32.69765334151987 66.412611129313 H 0.0 **** 0.06
11058 H 39.377479285797364 33.906648904301164 67.40693326419509 H 0.0 **** 0.06
11059 H 38.88163625601828 32.1978889929681 67.46548421186284 H 0.0 **** 0.06
11060 H 38.55830320964091 33.16821929486139 66.00884158868121 H 0.0 **** 0.06
11061 C 13.822490041606585 48.289311215722186 101.4740132254868 C 0.0 **** -0.24
11062 H 13.65066525420903 48.544252174480356 100.42884565753201 H 0.0 **** 0.06
11063 H 13.028970018630446 47.62563361876841 101.82159940397207 H 0.0 **** 0.06
11064 H 13.824165983377696 49.19870820949514 102.07493274143363 H 0.0 **** 0.06
11065 H 14.78479698500746 47.78743542797432 101.57230857159394 H 0.0 **** 0.06
11066 C 37.75532952882942 96.50954062700708 44.239293015216056 C 0.0 **** -0.24
11067 H 36.924694132091716 96.94149949081503 43.680294449588594 H 0.0 **** 0.06
11068 H 37.39440282122513 95.67161915832617 44.835777292868556 H 0.0 **** 0.06
11069 H 38.18226371757862 97.26650781551882 44.89687785029256 H 0.0 **** 0.06
11070 H 38.518097657284244 96.15975162564456 43.54396979880368 H 0.0 **** 0.06
11071 C 30.274709845299867 5.5538965799378275 93.53061930009665 C 0.0 **** -0.24
11072 H 30.837632595032574 5.989167989380519 92.70514263594572 H 0.0 **** 0.06
11073 H 29.85526881193499 4.597561003099557 93.22015935239853 H 0.0 **** 0.06
11074 H 29.467868001270915 6.230470692053686 93.81489339196071 H 0.0 **** 0.06
11075 H 30.937834473785642 5.401186576084825 94.3819572654977 H 0.0 **** 0.06
11076 C 33.1880534906399 99.72054435251678 67.02262762847602 C 0.0 **** -0.24
11077 H 32.55403691839189 99.15976660223936 66.3363170358688 H 0.0 **** 0.06
11078 H 33.770990427981246 100.4521957779329 66.46215751240857 H 0.0 **** 0.06
11079 H 33.86269385196647 99.03512798237355 67.53557182082233 H 0.0 **** 0.06
11080 H 32.565586914701555 100.23484065743006 67.75428642238302 H 0.0 **** 0.06
11081 C 29.58614038801892 115.95680199018776 79.00462631282622 C 0.0 **** -0.24
11082 H 30.116846824906858 115.29405636428012 79.68748781047248 H 0.0 **** 0.06
11083 H 29.509452716827212 116.95065172285891 79.44716868836812 H 0.0 **** 0.06
11084 H 28.58663837251426 115.56344572394289 78.81934131114505 H 0.0 **** 0.06
11085 H 30.131474506771525 116.0198654818681 78.06242903081096 H 0.0 **** 0.06
11086 C 7.570046736435302 5.755434163244239 112.61647147676912 C 0.0 **** -0.24
11087 H 8.053208701511664 4.983458081414922 112.01637690810897 H 0.0 **** 0.06
11088 H 6.870866965198275 6.31339106775043 111.99401370503762 H 0.0 **** 0.06
11089 H 8.325930929859055 6.433292518552179 113.01251576521891 H 0.0 **** 0.06
11090 H 7.0308604256494505 5.289653013689058 113.44210401020426 H 0.0 **** 0.06
11091 C 115.65350161080804 103.34286617063856 114.51711660501476 C 0.0 **** -0.24
11092 H 116.4931817683625 102.73910227724426 114.85936838316132 H 0.0 **** 0.06
11093 H 114.9310280295176 103.45173802778262 115.32603181192016 H 0.0 **** 0.06
11094 H 115.17770313741269 102.85437388078327 113.66693130487425 H 0.0 **** 0.06
11095 H 116.01277632026 104.32697891507425 114.21619177185146 H 0.0 **** 0.06
11096 C 75.47057605311517 60.19084265956957 9.077405158482474 C 0.0 **** -0.24
11097 H 75.67415302825765 61.25969308188786 9.15047512686894 H 0.0 **** 0.06
11098 H 74.73378799394578 59.909927815953324 9.830917106499069 H 0.0 **** 0.06
11099 H 76.39157230543282 59.63387173418079 9.244135927166276 H 0.0 **** 0.06
11100 H 75.08110967161707 59.961753178834556 8.085379995959883 H 0.0 **** 0.06
11101 C 105.893865381886 14.158584169728925 78.88339994003428 C 0.0 **** -0.24
11102 H 105.32667868429343 15.089370609232901 78.88011089934497 H 0.0 **** 0.06
11103 H 106.95764276513637 14.3829309232149 78.80234932146166 H 0.0 **** 0.06
11104 H 105.58587536189637 13.543512741469584 78.03835958459183 H 0.0 **** 0.06
11105 H 105.70510500416694 13.621345600831148 79.81284719870357 H 0.0 **** 0.06
11106 C 36.99265690449124 0.930058329674214 30.39313472417109 C 0.0 **** -0.24
11107 H 36.85383457029104 0.13539508857305016 31.12649867610554 H 0.0 **** 0.06
11108 H 37.513161155346666 1.7671046755610007 30.857442434462996 H 0.0 **** 0.06
11109 H 36.019951200505375 1.2620821560266382 30.03061887528142 H 0.0 **** 0.06
11110 H 37.58186377996276 0.5521050530171596 29.556919075184283 H 0.0 **** 0.06
11111 C 31.31591691708408 15.606132525656108 20.867484800702584 C 0.0 **** -0.24
11112 H 32.33051094316059 15.983730483408948 21.00102808670698 H 0.0 **** 0.06
11113 H 30.766895074262834 15.70178275230947 21.804738805081826 H 0.0 **** 0.06
11114 H 31.35473991680996 14.557593432436192 20.572499205174125 H 0.0 **** 0.06
11115 H 30.81364255691898 16.183130695810746 20.090412990080864 H 0.0 **** 0.06
11116 C 51.98361342824878 65.54347266699307 73.57095395594664 C 0.0 **** -0.24
11117 H 51.23008967641725 66.26020169516391 73.89732248353295 H 0.0 **** 0.06
11118 H 51.70290957341658 65.139631757373 72.59830971460104 H 0.0 **** 0.06
11119 H 52.05149585949222 64.73299961935172 74.2959645231291 H 0.0 **** 0.06
11120 H 52.94869609918462 66.0431554320771 73.49229336469938 H 0.0 **** 0.06
11121 C 113.87544037790192 12.51450928522965 35.719665619033734 C 0.0 **** -0.24
11122 H 114.21393435310179 11.703391559284626 35.07452465521405 H 0.0 **** 0.06
11123 H 114.60387994793044 12.676074882452369 36.51357383345885 H 0.0 **** 0.06
11124 H 112.91224513739373 12.251850028715111 36.15745326820766 H 0.0 **** 0.06
11125 H 113.77075803200782 13.425831939030871 35.13022636088584 H 0.0 **** 0.06
11126 C 22.308783455292826 52.446070647471934 71.24328962629235 C 0.0 **** -0.24
11127 H 22.830491740942563 51.85569667648419 70.49048290088163 H 0.0 **** 0.06
11128 H 22.82650499288954 53.39508329072214 71.38358357375901 H 0.0 **** 0.06
11129 H 22.28987279086121 51.898475675831605 72.1861810126083 H 0.0 **** 0.06
11130 H 21.286973540406137 52.63486203035402 70.91346497406667 H 0.0 **** 0.06
11131 C 24.967692354879205 96.8480255818352 39.29496113482918 C 0.0 **** -0.24
11132 H 24.75473251986324 96.95992568621057 38.23137639552618 H 0.0 **** 0.06
11133 H 24.735479354596578 95.82861900574133 39.6049827237725 H 0.0 **** 0.06
11134 H 24.3564363346552 97.54915586880651 39.862725463602516 H 0.0 **** 0.06
11135 H 26.021762093378584 97.05248010455301 39.47780312926239 H 0.0 **** 0.06
11136 C 17.065754950148204 10.050575239813782 1.3920812483290348 C 0.0 **** -0.24
11137 H 16.678506312126245 10.872892942579 0.7906146712606841 H 0.0 **** 0.06
11138 H 17.92079691010639 10.396227755089782 1.9735256415872868 H 0.0 **** 0.06
11139 H 17.37761557248271 9.237492762424665 0.7360135368132461 H 0.0 **** 0.06
11140 H 16.2864775380593 9.695054434452643 2.066311658567713 H 0.0 **** 0.06
11141 C 109.42616448427768 70.49221513653771 73.17147345868358 C 0.0 **** -0.24
11142 H 110.10732813952907 69.88207871858663 72.57861970802205 H 0.0 **** 0.06
11143 H 108.50475569055291 70.65502800766225 72.61185769570181 H 0.0 **** 0.06
11144 H 109.89495043948116 71.45169027800762 73.38937740736705 H 0.0 **** 0.06
11145 H 109.19862925517779 69.97909423292717 74.10581687562319 H 0.0 **** 0.06
11146 C 55.266178813482384 47.75651796110287 21.5486499815668 C 0.0 **** -0.24
11147 H 54.541579278952895 47.20771271100867 20.947649783197836 H 0.0 **** 0.06
11148 H 54.99934634367136 47.6745557075549 22.60288081871722 H 0.0 **** 0.06
11149 H 55.262654334183964 48.80623866975287 21.253339912266075 H 0.0 **** 0.06
11150 H 56.260442778940046 47.33766802925683 21.3914434227811 H 0.0 **** 0.06
11151 C 61.77906081931238 79.76711285351746 85.94912642246766 C 0.0 **** -0.24
11152 H 61.101976816501804 79.04090233950731 85.49872488869315 H 0.0 **** 0.06
11153 H 61.21759324987178 80.65562604514582 86.2388857614418 H 0.0 **** 0.06
11154 H 62.549289057720074 80.04163794761115 85.22861106610867 H 0.0 **** 0.06
11155 H 62.2456134353713 79.32879894060648 86.83191382247352 H 0.0 **** 0.06
11156 C 43.24407405083585 47.438120731208215 15.299747683344492 C 0.0 **** -0.24
11157 H 44.165570698102584 46.962552184905576 14.960842722329005 H 0.0 **** 0.06
11158 H 43.45919369331426 48.069156784477485 16.162679931035655 H 0.0 **** 0.06
11159 H 42.522535857228775 46.67213889188619 15.580710878125899 H 0.0 **** 0.06
11160 H 42.83397475643311 48.048556002984355 14.49585574273982 H 0.0 **** 0.06
11161 C 115.51256745891702 103.01347260739377 16.516816410618162 C 0.0 **** -0.24
11162 H 115.90685880331948 102.09101726982666 16.091824189910255 H 0.0 **** 0.06
11163 H 115.68446703426243 103.01977200640846 17.59336684827545 H 0.0 **** 0.06
11164 H 114.44213962341611 103.07602446708052 16.319759297915027 H 0.0 **** 0.06
11165 H 116.01638311504006 103.86646237014614 16.062982550020422 H 0.0 **** 0.06
11166 C 70.49224649062873 23.801726239685877 77.35135247791342 C 0.0 **** -0.24
11167 H 69.95654013782703 24.501557460089714 76.71087619796359 H 0.0 **** 0.06
11168 H 70.084664483371 22.799731026343295 77.2146099955176 H 0.0 **** 0.06
11169 H 70.37743928541803 24.10158835565619 78.39288642840896 H 0.0 **** 0.06
11170 H 71.54991414740886 23.80318296400202 77.08671686915145 H 0.0 **** 0.06
11171 C 85.76048808060969 45.49304825258295 51.313584419494966 C 0.0 **** -0.24
11172 H 85.88070568270084 44.73497958122175 50.539891611736124 H 0.0 **** 0.06
11173 H 86.70707606796853 45.62819820963341 51.8390106921793 H 0.0 **** 0.06
11174 H 84.99505089395686 45.171596081394284 52.02019138548132 H 0.0 **** 0.06
11175 H 85.46047187060367 46.43556383950158 50.85609826613219 H 0.0 **** 0.06
11176 C 74.08709526699528 92.26904233361108 69.18483089717168 C 0.0 **** -0.24
11177 H 74.58410803084053 93.0287440232621 68.58179391297602 H 0.0 **** 0.06
11178 H 73.21632492492083 92.70573814430787 69.67390629798098 H 0.0 **** 0.06
11179 H 74.77908738889161 91.8957984926738 69.9398540165287 H 0.0 **** 0.06
11180 H 73.77113648084281 91.44654977789554 68.54314950804158 H 0.0 **** 0.06
11181 C 71.83300488368161 99.14397762689242 72.03795295401349 C 0.0 **** -0.24
11182 H 72.7023709617369 99.68899680027289 72.40519492528722 H 0.0 **** 0.06
11183 H 71.93398463384449 98.08746181294936 72.29045149005506 H 0.0 **** 0.06
11184 H 71.76557434298161 99.25487319020448 70.95652881973791 H 0.0 **** 0.06
11185 H 70.9306957888441 99.5437720164499 72.50186865034999 H 0.0 **** 0.06
11186 C 77.76515548872919 3.59950416442868 32.49163917050447 C 0.0 **** -0.24
11187 H 77.0659828452923 4.359792473090977 32.14242389305562 H 0.0 **** 0.06
11188 H 77.43200561479017 2.6177430577568828 32.1541331794233 H 0.0 **** 0.06
11189 H 77.806441205455 3.6160216401562764 33.57997989504452 H 0.0 **** 0.06
11190 H 78.75634918643854 3.806136518989206 32.08667849334799 H 0.0 **** 0.06
11191 C 16.29920933600069 54.65124424732916 19.756836399051025 C 0.0 **** -0.24
11192 H 15.434371903760834 54.90411226874255 20.370501589696374 H 0.0 **** 0.06
11193 H 16.083334636669505 54.881233190272624 18.713459109975673 H 0.0 **** 0.06
11194 H 16.517509998344973 53.58840574943258 19.85798519640113 H 0.0 **** 0.06
11195 H 17.161088730015074 55.23240152731152 20.087225845393448 H 0.0 **** 0.06
11196 C 9.722493448844546 55.20677221776785 72.20570106078063 C 0.0 **** -0.24
11197 H 9.558184898171532 54.12933308770185 72.1868704027631 H 0.0 **** 0.06
11198 H 9.05717643167199 55.66379129919232 72.93860543628207 H 0.0 **** 0.06
11199 H 9.517714797852449 55.62279065425174 71.21924207524683 H 0.0 **** 0.06
11200 H 10.758795310323023 55.41094859230008 72.47749603007662 H 0.0 **** 0.06
11201 C 57.839417205845656 36.12606188828238 107.29226588768552 C 0.0 **** -0.24
11202 H 58.425586153960374 36.519261520781185 106.46262326225889 H 0.0 **** 0.06
11203 H 57.86313191170904 35.036347527304784 107.27123706199862 H 0.0 **** 0.06
11204 H 56.80778027830501 36.46919772294902 107.20319781695315 H 0.0 **** 0.06
11205 H 58.259320676408784 36.48129236764022 108.2330779412226 H 0.0 **** 0.06
11206 C 39.34954076855047 20.59000904185389 10.665026681861946 C 0.0 **** -0.24
11207 H 40.27635677984625 20.64407059302225 11.236168867166384 H 0.0 **** 0.06
11208 H 38.76598740239717 19.731538516783274 10.998565029779343 H 0.0 **** 0.06
11209 H 39.582076455801655 20.481676444020593 9.605798118893915 H 0.0 **** 0.06
11210 H 38.77368022813204 21.502878966588696 10.818584906718968 H 0.0 **** 0.06
11211 C 76.39989538395542 114.99276825720506 45.46762660704189 C 0.0 **** -0.24
11212 H 76.27687380997901 114.40144293005318 44.56033061988154 H 0.0 **** 0.06
11213 H 76.30033715797305 114.34505708843687 46.33951275515096 H 0.0 **** 0.06
11214 H 75.63455898137317 115.76825809046323 45.50194404068276 H 0.0 **** 0.06
11215 H 77.38694796432225 115.45484239831933 45.46842573582052 H 0.0 **** 0.06
11216 C 73.79431245073701 101.56729519259761 41.93837696486884 C 0.0 **** -0.24
11217 H 74.8828043091469 101.60848567134596 41.95896133120158 H 0.0 **** 0.06
11218 H 73.39379310064234 102.57962819888402 41.88535719007206 H 0.0 **** 0.06
11219 H 73.43198713598858 101.07948014561958 42.84370058387657 H 0.0 **** 0.06
11220 H 73.46866525717047 101.00158675454091 41.06548875432509 H 0.0 **** 0.06
11221 C 58.518354433441424 109.0318640665105 37.22431159705951 C 0.0 **** -0.24
11222 H 57.607963464035045 108.78270223540224 37.76971479181438 H 0.0 **** 0.06
11223 H 58.328116469625535 109.88487135827013 36.57258460731535 H 0.0 **** 0.06
11224 H 58.826276720018576 108.17564886808461 36.62311159888691 H 0.0 **** 0.06
11225 H 59.307980185655104 109.2830574432336 37.93148197442076 H 0.0 **** 0.06
11226 C 23.48759143199331 101.6931106678168 108.51474386120407 C 0.0 **** -0.24
11227 H 23.442849416914797 102.77697884578356 108.40698530472953 H 0.0 **** 0.06
11228 H 24.15501124208197 101.4380392363154 109.33806053309529 H 0.0 **** 0.06
11229 H 23.863134755546326 101.25154856268458 107.59190581589334 H 0.0 **** 0.06
11230 H 22.48954807154061 101.30758414605498 108.72345592930137 H 0.0 **** 0.06
11231 C 46.444913208094874 84.17910507727862 9.916540598837713 C 0.0 **** -0.24
11232 H 45.51916022933514 83.73577757820576 10.283236810436534 H 0.0 **** 0.06
11233 H 46.227098806443564 84.8185889087197 9.061256278316222 H 0.0 **** 0.06
11234 H 47.13077157419164 83.38735767936038 9.614849804650106 H 0.0 **** 0.06
11235 H 46.90092607788827 84.77206289107187 10.708866424430454 H 0.0 **** 0.06
11236 C 30.495663668494387 84.78465706834515 14.301392924634087 C 0.0 **** -0.24
11237 H 31.288429603341825 85.35183797416272 14.790363297277167 H 0.0 **** 0.06
11238 H 29.85102738927438 85.46662213312021 13.745586512816487 H 0.0 **** 0.06
11239 H 29.90662821180672 84.26082384067752 15.0543577035304 H 0.0 **** 0.06
11240 H 30.936577969347837 84.061276160957 13.616390341855578 H 0.0 **** 0.06
11241 C 44.287802451371846 69.12250152859806 40.71842756388488 C 0.0 **** -0.24
11242 H 44.92614197076247 69.99229677794995 40.87133213132006 H 0.0 **** 0.06
11243 H 43.76155524465014 69.22001054957488 39.76804715355407 H 0.0 **** 0.06
11244 H 43.56253237339516 69.05764245694135 41.53042243125845 H 0.0 **** 0.06
11245 H 44.89908231052448 68.2208763103659 40.70476052212712 H 0.0 **** 0.06
11246 C 10.910063914143159 12.23553382833056 92.42654554831384 C 0.0 **** -0.24
11247 H 11.649604367540306 12.02945943479638 91.65310117513752 H 0.0 **** 0.06
11248 H 10.9507673555071 11.45369614450101 93.18498343919768 H 0.0 **** 0.06
11249 H 9.914960428378865 12.25988635010367 91.98130513198211 H 0.0 **** 0.06
11250 H 11.124865312421893 13.20038036767798 92.88620900669605 H 0.0 **** 0.06
11251 C 29.937133377363693 107.90460316017175 35.44146942836696 C 0.0 **** -0.24
11252 H 29.936399227417496 108.30424075384971 34.42609000610565 H 0.0 **** 0.06
11253 H 30.347469168981604 106.89443335443343 35.43255241395735 H 0.0 **** 0.06
11254 H 28.916019591153713 107.88080859943295 35.822553986974924 H 0.0 **** 0.06
11255 H 30.549128936700583 108.54013044947376 36.081170482743204 H 0.0 **** 0.06
11256 C 104.32004776377204 5.650003507804399 103.327410498293 C 0.0 **** -0.24
11257 H 104.06685381078566 5.651677209527833 104.38756378072466 H 0.0 **** 0.06
11258 H 103.43447807524257 5.399573892038333 102.74383765369407 H 0.0 **** 0.06
11259 H 105.09966373584535 4.911321159397133 103.14170567869078 H 0.0 **** 0.06
11260 H 104.67874353386199 6.638420422656438 103.03821959328778 H 0.0 **** 0.06
11261 C 6.3740123246631555 25.95760594279517 89.69276004208507 C 0.0 **** -0.24
11262 H 5.491964341782918 25.857353192681742 90.32656427360433 H 0.0 **** 0.06
11263 H 6.336643769059762 25.212431273268955 88.89814298465228 H 0.0 **** 0.06
11264 H 7.270573451255899 25.80526112090736 90.29287595811397 H 0.0 **** 0.06
11265 H 6.394573799121062 26.95628994385241 89.25626895451475 H 0.0 **** 0.06
11266 C 35.68908016281125 66.70178588633703 91.12157697414025 C 0.0 **** -0.24
11267 H 35.22001561903056 67.33441831179988 91.8755250273868 H 0.0 **** 0.06
11268 H 35.9176995683448 67.29972396969089 90.23838657508631 H 0.0 **** 0.06
11269 H 35.00809335310254 65.89615209061606 90.84911036143708 H 0.0 **** 0.06
11270 H 36.60939354710894 66.27902485936974 91.52341064636875 H 0.0 **** 0.06
11271 C 108.96693950717446 34.31334964912986 57.238232665684876 C 0.0 **** -0.24
11272 H 109.2907742771106 34.33738725224387 58.27899115401101 H 0.0 **** 0.06
11273 H 108.94871638820567 35.32818039908193 56.840230828823906 H 0.0 **** 0.06
11274 H 107.9674958371921 33.882080747356724 57.17942395970127 H 0.0 **** 0.06
11275 H 109.66021793778985 33.70668503961545 56.65648016071361 H 0.0 **** 0.06
11276 C 74.63009401119186 43.159334732012695 86.01686892493487 C 0.0 **** -0.24
11277 H 74.10747512486486 43.20457143516603 85.06191497409031 H 0.0 **** 0.06
11278 H 75.70565242502096 43.20301458871691 85.84472320397126 H 0.0 **** 0.06
11279 H 74.38130615038298 42.22576483020916 86.52306147283599 H 0.0 **** 0.06
11280 H 74.32631353338277 44.001783092556934 86.63775225640819 H 0.0 **** 0.06
11281 C 19.27818776422427 36.65227790645372 51.81953672350389 C 0.0 **** -0.24
11282 H 19.714016988019125 37.12639424326224 50.94048068684296 H 0.0 **** 0.06
11283 H 19.482447593460805 37.26128978954122 52.69966248927088 H 0.0 **** 0.06
11284 H 19.7151210208321 35.66260097851605 51.95212580321436 H 0.0 **** 0.06
11285 H 18.20019533868407 36.55783356694346 51.684438135572734 H 0.0 **** 0.06
11286 C 66.21201879034712 78.97619887636591 23.00073557214715 C 0.0 **** -0.24
11287 H 66.28315989042463 79.82931164351533 22.32590038848039 H 0.0 **** 0.06
11288 H 65.26699156825691 78.45914734639064 22.834786116753648 H 0.0 **** 0.06
11289 H 66.26008675116293 79.3252676264305 24.031922950647186 H 0.0 **** 0.06
11290 H 67.03981720197544 78.29237014027291 22.809711783607128 H 0.0 **** 0.06
11291 C 47.23597112506579 57.4647387937857 34.73260786285323 C 0.0 **** -0.24
11292 H 48.10033237843971 56.805830902981995 34.6537539137658 H 0.0 **** 0.06
11293 H 46.33227501501158 56.909799794311624 34.48152025334923 H 0.0 **** 0.06
11294 H 47.35346354382691 58.30153226793601 34.04425972140956 H 0.0 **** 0.06
11295 H 47.15971069473725 57.841620470140384 35.752988462446865 H 0.0 **** 0.06
11296 C 8.566482288834209 50.66863892346146 77.35802097506664 C 0.0 **** -0.24
11297 H 9.179408536489404 51.41709499603405 77.86031361004203 H 0.0 **** 0.06
11298 H 9.102933840177911 50.28131718778508 76.49226088873388 H 0.0 **** 0.06
11299 H 7.631195228627178 51.1234135944199 77.03269492437119 H 0.0 **** 0.06
11300 H 8.352808339599022 49.85254354858489 78.04876172800147 H 0.0 **** 0.06
11301 C 13.27256308449003 11.88367533856011 55.46880050265861 C 0.0 **** -0.24
11302 H 13.923478580563426 12.093821277794945 56.31794755290335 H 0.0 **** 0.06
11303 H 13.758896129989608 11.16660691814161 54.8079707409471 H 0.0 **** 0.06
11304 H 13.077828699374919 12.807639647091946 54.92367622222832 H 0.0 **** 0.06
11305 H 12.33106636498033 11.467939743492678 55.82810931423981 H 0.0 **** 0.06
11306 C 22.79268403937595 18.830465784385026 19.058747335164412 C 0.0 **** -0.24
11307 H 21.867859224351836 19.39572175730608 18.937690359935544 H 0.0 **** 0.06
11308 H 23.024938463015072 18.737984833159523 20.120329267902832 H 0.0 **** 0.06
11309 H 23.60457962668498 19.35085276088655 18.55181750899621 H 0.0 **** 0.06
11310 H 22.67006942977979 17.837585224377722 18.62620160690912 H 0.0 **** 0.06
11311 C 74.27840609030653 75.33360200385164 15.123870332841378 C 0.0 **** -0.24
11312 H 73.54575994132563 75.54454198096272 14.34503986563356 H 0.0 **** 0.06
11313 H 74.26483870412866 74.26850163670488 15.355119330694734 H 0.0 **** 0.06
11314 H 74.0320950354299 75.90423317321483 16.018955726075564 H 0.0 **** 0.06
11315 H 75.27132346420296 75.61650884505377 14.773457992367653 H 0.0 **** 0.06
11316 C 52.57666540990533 66.66758215981673 4.420880896033609 C 0.0 **** -0.24
11317 H 53.12946782170775 67.06996405239693 5.270370349283084 H 0.0 **** 0.06
11318 H 52.28108037606725 65.6406728635983 4.633795669278285 H 0.0 **** 0.06
11319 H 53.21019403545682 66.6873649113825 3.533157860803712 H 0.0 **** 0.06
11320 H 51.687768575255774 67.27393281919558 4.246240488784224 H 0.0 **** 0.06
11321 C 30.41107144425456 50.1271037308627 108.5545552751883 C 0.0 **** -0.24
11322 H 30.818412238344024 49.860881970253615 107.57956277430276 H 0.0 **** 0.06
11323 H 29.38559767920509 50.47910894919494 108.43568586095034 H 0.0 **** 0.06
11324 H 31.016759817450577 50.91787804001416 108.99817741502125 H 0.0 **** 0.06
11325 H 30.422130801436538 49.252566187888476 109.20478271265279 H 0.0 **** 0.06
11326 C 116.50976967552972 107.78035224308732 29.400364789387083 C 0.0 **** -0.24
11327 H 116.14929207621331 107.73654625941035 30.427840273518484 H 0.0 **** 0.06
11328 H 116.1584366588281 106.90496842743173 28.853885816758066 H 0.0 **** 0.06
11329 H 117.60005569061022 107.79578049177925 29.399740584477172 H 0.0 **** 0.06
11330 H 116.13310130636167 108.68437013725028 28.921626275700646 H 0.0 **** 0.06
11331 C 4.553104684002138 82.22412947844566 64.82699798426665 C 0.0 **** -0.24
11332 H 4.542264776918884 83.2494442456539 65.1964070735344 H 0.0 **** 0.06
11333 H 3.9179499597409535 81.60301249133033 65.45905982072324 H 0.0 **** 0.06
11334 H 5.57293682007781 81.84193257919051 64.84867337577282 H 0.0 **** 0.06
11335 H 4.179037815957226 82.20334324834118 63.80316454829347 H 0.0 **** 0.06
11336 C 85.33630936539149 43.96419961576345 41.728002526572226 C 0.0 **** -0.24
11337 H 84.72064080266736 44.652431312842 42.30562196516695 H 0.0 **** 0.06
11338 H 84.86630166828209 43.780702055997466 40.76160488649751 H 0.0 **** 0.06
11339 H 85.43420640692392 43.02254365828185 42.268700431403005 H 0.0 **** 0.06
11340 H 86.32387962785731 44.400374223519236 41.575451896032234 H 0.0 **** 0.06
11341 C 56.31537860160614 30.489798975597694 49.962016106203066 C 0.0 **** -0.24
11342 H 55.519350148850776 30.711700923215083 49.25074032657608 H 0.0 **** 0.06
11343 H 55.97608882170749 30.72250445033395 50.971527665741974 H 0.0 **** 0.06
11344 H 57.191718009444685 31.092550655435673 49.723811120267726 H 0.0 **** 0.06
11345 H 56.574061651820614 29.432836423789922 49.89870569277758 H 0.0 **** 0.06
11346 C 5.013560338231477 101.47090674583737 88.89328505037653 C 0.0 **** -0.24
11347 H 4.222542199049208 101.39134706912904 88.14674395989772 H 0.0 **** 0.06
11348 H 5.931621406440534 101.81229781120575 88.4129538137586 H 0.0 **** 0.06
11349 H 5.182015028400235 100.49603592455799 89.34957968966197 H 0.0 **** 0.06
11350 H 4.717181416559093 102.18558753368282 89.6607756661746 H 0.0 **** 0.06
11351 C 107.8071548488268 17.13070800768518 114.71940531322683 C 0.0 **** -0.24
11352 H 107.80440516268177 18.08239642560534 114.18793982624886 H 0.0 **** 0.06
11353 H 108.80365924612555 16.69243814383939 114.67521915001942 H 0.0 **** 0.06
11354 H 107.09088565364459 16.454024433251412 114.25400257058006 H 0.0 **** 0.06
11355 H 107.52791420429122 17.296187692516458 115.760336217603 H 0.0 **** 0.06
11356 C 13.738495397078072 54.68691834938832 108.1008886515661 C 0.0 **** -0.24
11357 H 12.8892528936668 55.35052213936899 108.26795518434625 H 0.0 **** 0.06
11358 H 14.634029355822012 55.282368710172605 107.9199333238904 H 0.0 **** 0.06
11359 H 13.54046946524334 54.054990767011056 107.23494336232324 H 0.0 **** 0.06
11360 H 13.888169811665541 54.06111188807969 108.98084025381655 H 0.0 **** 0.06
11361 C 38.251534987030766 39.521457160514785 46.594879974356445 C 0.0 **** -0.24
11362 H 38.02568862976966 40.479669330251966 47.06298235337664 H 0.0 **** 0.06
11363 H 39.00140032008426 39.66604727448879 45.817078810214525 H 0.0 **** 0.06
11364 H 37.34367688791076 39.11018654025952 46.152914876470675 H 0.0 **** 0.06
11365 H 38.6344670715564 38.83196890312462 47.34658927224041 H 0.0 **** 0.06
11366 C 17.612756393988263 2.0173683449742015 99.96212264657825 C 0.0 **** -0.24
11367 H 16.950359816180736 2.696982856057474 99.42677154161095 H 0.0 **** 0.06
11368 H 18.625897562607435 2.418937158724958 99.95807247796049 H 0.0 **** 0.06
11369 H 17.606428099785063 1.042637803318641 99.47229981828917 H 0.0 **** 0.06
11370 H 17.26849228766264 1.9087962415498225 100.9906498911761 H 0.0 **** 0.06
11371 C 57.22969116109948 95.79185270515649 108.768776119374 C 0.0 **** -0.24
11372 H 56.69847792480175 96.6088138801916 109.25825131281431 H 0.0 **** 0.06
11373 H 56.88939484451873 95.70411227144814 107.73666176686419 H 0.0 **** 0.06
11374 H 57.03093238151226 94.86055264493515 109.2987063831199 H 0.0 **** 0.06
11375 H 58.30039322226898 95.99609643921474 108.78112797596039 H 0.0 **** 0.06
11376 C 88.8713734042287 92.29108333605205 16.84912386756616 C 0.0 **** -0.24
11377 H 89.04638776280677 91.41772995893822 16.22222457884317 H 0.0 **** 0.06
11378 H 89.21717846539448 93.18551845618947 16.330539578045034 H 0.0 **** 0.06
11379 H 89.41546974442349 92.18016303369313 17.78699902757736 H 0.0 **** 0.06
11380 H 87.80427027091005 92.38137617179365 17.056635741033652 H 0.0 **** 0.06
11381 C 67.36380064382246 98.01956048653275 65.76095925772498 C 0.0 **** -0.24
11382 H 67.83309746130308 98.9366421189728 65.40688065416285 H 0.0 **** 0.06
11383 H 67.6532378966509 97.83975060011207 66.79632993841548 H 0.0 **** 0.06
11384 H 67.68940167476222 97.18302576546381 65.14245492550833 H 0.0 **** 0.06
11385 H 66.27998012944812 98.11731541648595 65.69749241452507 H 0.0 **** 0.06
11386 C 7.1868859238808795 42.70855435204513 36.27047762691061 C 0.0 **** -0.24
11387 H 6.938767912616612 43.719107730606964 36.595687270602895 H 0.0 **** 0.06
11388 H 7.859235727838154 42.24871402521458 36.994399272740885 H 0.0 **** 0.06
11389 H 7.674088741347973 42.75040989882635 35.296181722825885 H 0.0 **** 0.06
11390 H 6.273153543516472 42.11742725772589 36.19484050451586 H 0.0 **** 0.06
11391 C 9.290781501380081 72.3125079343659 108.3631526298982 C 0.0 **** -0.24
11392 H 10.3191457419628 72.63918693176919 108.21291710698145 H 0.0 **** 0.06
11393 H 8.76009267181432 73.04824802331837 108.96782599654126 H 0.0 **** 0.06
11394 H 9.287890765774193 71.34988221194868 108.87557178734085 H 0.0 **** 0.06
11395 H 8.796587043488373 72.21192661153952 107.39731095142182 H 0.0 **** 0.06
11396 C 76.10515018379465 36.59156837807643 72.53234164261755 C 0.0 **** -0.24
11397 H 75.45730298212123 35.722138541878394 72.41747750791404 H 0.0 **** 0.06
11398 H 76.58930569153239 36.55653242833034 73.50870783394802 H 0.0 **** 0.06
11399 H 75.5092535165669 37.5010730897709 72.4547058310711 H 0.0 **** 0.06
11400 H 76.8627585207941 36.585161083813944 71.74893083164238 H 0.0 **** 0.06
11401 C 16.890371971119094 94.37169158328808 39.20617351936224 C 0.0 **** -0.24
11402 H 17.62422136552746 94.2202376031895 38.41476609843639 H 0.0 **** 0.06
11403 H 16.01173604375495 94.86990169603493 38.79630578217632 H 0.0 **** 0.06
11404 H 17.32560168500524 94.98884495513005 39.99117459309866 H 0.0 **** 0.06
11405 H 16.600776241261272 93.4062602739894 39.62104538155333 H 0.0 **** 0.06
11406 C 34.55795152682924 113.27446256581294 37.48735327267583 C 0.0 **** -0.24
11407 H 35.05733361008026 113.81504910279136 38.29177463707726 H 0.0 **** 0.06
11408 H 35.13935815814534 112.38912229073603 37.23059487789541 H 0.0 **** 0.06
11409 H 34.472297345836864 113.92014788107451 36.6145052420632 H 0.0 **** 0.06
11410 H 33.56311599829951 112.97248672977966 37.81611896658529 H 0.0 **** 0.06
11411 C 24.58737898584056 106.87940452638745 21.401333513419974 C 0.0 **** -0.24
11412 H 24.27491827315754 107.71116439740692 22.03181168027942 H 0.0 **** 0.06
11413 H 24.29851350233247 107.07751510978662 20.368786208179053 H 0.0 **** 0.06
11414 H 24.107120614373855 105.96334131960938 21.743422668613864 H 0.0 **** 0.06
11415 H 25.669862998976186 106.76561105021023 21.46087661421041 H 0.0 **** 0.06
11416 C 2.614956587255236 19.34108671001914 1.0311764556045748 C 0.0 **** -0.24
11417 H 2.5372483681923654 19.082862727821492 2.0870745312147054 H 0.0 **** 0.06
11418 H 1.7575108094839607 18.933863574934207 0.49374169222111597 H 0.0 **** 0.06
11419 H 3.53322806051672 18.92213734491125 0.6211022837088098 H 0.0 **** 0.06
11420 H 2.6298499075202812 20.42528413360023 0.9228479617224323 H 0.0 **** 0.06
11421 C 66.86854248604885 72.48621879300123 103.43042352223651 C 0.0 **** -0.24
11422 H 67.30008459509901 71.50980644209278 103.21248032616839 H 0.0 **** 0.06
11423 H 66.01321981104007 72.36630778370215 104.09436656176356 H 0.0 **** 0.06
11424 H 66.54484971578722 72.95571681559542 102.50062265253268 H 0.0 **** 0.06
11425 H 67.61769855548636 73.11543891009381 103.91189340008123 H 0.0 **** 0.06
11426 C 74.46436697779424 74.95028378648101 60.86692697308853 C 0.0 **** -0.24
11427 H 73.5859132842346 75.56753385154954 61.054320710629646 H 0.0 **** 0.06
11428 H 75.35116718261526 75.4556480551636 61.249436213523175 H 0.0 **** 0.06
11429 H 74.57182685071191 74.78695827094523 59.79488589099427 H 0.0 **** 0.06
11430 H 74.34782774669586 73.98988428598284 61.37055824580384 H 0.0 **** 0.06
11431 C 38.585362690328466 78.54288835175868 84.30076702868698 C 0.0 **** -0.24
11432 H 38.23457474919042 78.67122820403375 85.32482497365382 H 0.0 **** 0.06
11433 H 39.32595891178376 77.74299283093964 84.2678818806707 H 0.0 **** 0.06
11434 H 39.03673962510324 79.47173486277993 83.95285762349275 H 0.0 **** 0.06
11435 H 37.743383883099824 78.28456090160626 83.65864198230784 H 0.0 **** 0.06
11436 C 33.01207992696294 103.04113194129565 45.572119081406015 C 0.0 **** -0.24
11437 H 32.06584659072621 102.65914418117092 45.95338762819415 H 0.0 **** 0.06
11438 H 32.98733823521354 103.04871472706506 44.482302431298024 H 0.0 **** 0.06
11439 H 33.82600418407699 102.40007278922667 45.912143326534476 H 0.0 **** 0.06
11440 H 33.16916150538529 104.05439923363528 45.93955974100152 H 0.0 **** 0.06
11441 C 64.25938733985828 94.67791628478443 36.0699401811039 C 0.0 **** -0.24
11442 H 64.77334061074802 93.85032902433781 35.58066485319881 H 0.0 **** 0.06
11443 H 64.09758930138204 95.48108869723524 35.35102820061212 H 0.0 **** 0.06
11444 H 64.86882117129662 95.0460688207285 36.89547764317814 H 0.0 **** 0.06
11445 H 63.29947842572903 94.33275954920978 36.45366879943407 H 0.0 **** 0.06
11446 C 22.42781324343821 97.99510819450049 71.9100393574308 C 0.0 **** -0.24
11447 H 22.365545333708837 98.03088245918181 72.99698912096454 H 0.0 **** 0.06
11448 H 22.300271019227438 96.96642525293376 71.5721172012232 H 0.0 **** 0.06
11449 H 23.402024959153522 98.36521980554625 71.58972712443239 H 0.0 **** 0.06
11450 H 21.64345127927004 98.61777571325979 71.4803331722992 H 0.0 **** 0.06
11451 C 14.709720504498279 19.849649789656212 59.07220944117487 C 0.0 **** -0.24
11452 H 14.865534860851994 19.47970369953353 60.08608310128246 H 0.0 **** 0.06
11453 H 14.038980432382743 20.70909373739144 59.09917032027371 H 0.0 **** 0.06
11454 H 14.26645195300162 19.061504325888222 58.463655681507696 H 0.0 **** 0.06
11455 H 15.665944784352519 20.14676443375913 58.642530570862014 H 0.0 **** 0.06
11456 C 69.07042987592342 92.75097584848717 77.3266351551809 C 0.0 **** -0.24
11457 H 69.31404177379571 93.090985218209 76.31987308726121 H 0.0 **** 0.06
11458 H 68.8470917117605 93.61221851718804 77.95683443640957 H 0.0 **** 0.06
11459 H 69.91893467673512 92.20702463920156 77.74173954354535 H 0.0 **** 0.06
11460 H 68.2014344427024 92.09357635446975 77.28669951753392 H 0.0 **** 0.06
11461 C 109.514181014352 19.708524034443997 5.938495540505642 C 0.0 **** -0.24
11462 H 108.83831590335751 20.272579059604823 6.580705945290504 H 0.0 **** 0.06
11463 H 108.96168653145662 18.91117700766864 5.440709872570409 H 0.0 **** 0.06
11464 H 110.31246028772335 19.27530474728951 6.541054426106342 H 0.0 **** 0.06
11465 H 109.94430847903158 20.374565585248718 5.189845395381752 H 0.0 **** 0.06
11466 C 28.542299334975837 49.793423404619524 12.736130144719908 C 0.0 **** -0.24
11467 H 28.714492120501802 48.90235030173701 12.132643342036545 H 0.0 **** 0.06
11468 H 27.483903764249135 49.86317359907612 12.988534048204627 H 0.0 **** 0.06
11469 H 28.840483859784285 50.67795609007444 12.172243674626003 H 0.0 **** 0.06
11470 H 29.13141184575312 49.73078462175998 13.651789947104078 H 0.0 **** 0.06
11471 C 6.263690004546069 56.207987567980105 78.4992685130513 C 0.0 **** -0.24
11472 H 6.530428694260266 56.91737294453083 79.28299605081511 H 0.0 **** 0.06
11473 H 7.09833156796137 55.52896305215059 78.3243338268484 H 0.0 **** 0.06
11474 H 6.03696001445172 56.75106918404136 77.58126911699864 H 0.0 **** 0.06
11475 H 5.388750726885483 55.6364996421348 78.80816452029998 H 0.0 **** 0.06
11476 C 80.38169608532763 64.50299672880925 58.81753416939716 C 0.0 **** -0.24
11477 H 79.45835049761288 64.4015873900687 58.247580650715065 H 0.0 **** 0.06
11478 H 81.10800938117632 65.06912032364801 58.233013742784124 H 0.0 **** 0.06
11479 H 80.78270468955523 63.514414729322766 59.03882048837255 H 0.0 **** 0.06
11480 H 80.17604338464432 65.0295584904797 59.74975606995906 H 0.0 **** 0.06
11481 C 72.59101693307471 116.13247816084674 24.697215582505038 C 0.0 **** -0.24
11482 H 73.54250192934495 116.04301117479758 25.22188019394129 H 0.0 **** 0.06
11483 H 71.81273888715134 116.42107917623929 25.40414184466195 H 0.0 **** 0.06
11484 H 72.33462871358071 115.1746985604851 24.24522195303655 H 0.0 **** 0.06
11485 H 72.67500623106787 116.8908822501442 23.918753632202737 H 0.0 **** 0.06
11486 C 115.25492335011265 95.9100287464722 106.37972628031875 C 0.0 **** -0.24
11487 H 116.09487895080045 95.72443399037837 107.04761251397278 H 0.0 **** 0.06
11488 H 114.48920671179096 95.14986424480671 106.53846505648337 H 0.0 **** 0.06
11489 H 115.59740468042767 95.87063096373618 105.34552304259276 H 0.0 **** 0.06
11490 H 114.836472048059 96.89522285100955 106.58735356899729 H 0.0 **** 0.06
11491 C 35.764037699945504 98.78136581770491 6.042546150653465 C 0.0 **** -0.24
11492 H 35.13560419598389 97.92000843741044 5.815709706464659 H 0.0 **** 0.06
11493 H 36.01827175039347 99.29950617844196 5.1170280949237394 H 0.0 **** 0.06
11494 H 36.678275591052625 98.44520770640423 6.533188436568821 H 0.0 **** 0.06
11495 H 35.22520147361291 99.4600524749909 6.703974096606274 H 0.0 **** 0.06
11496 C 33.3474406463947 91.04691623527549 79.64750070579584 C 0.0 **** -0.24
11497 H 32.76976951622652 91.78914729202262 79.09628195666585 H 0.0 **** 0.06
11498 H 33.23894366825698 91.22420818740488 80.71772216060006 H 0.0 **** 0.06
11499 H 34.39879059735276 91.12729540213871 79.37036993476488 H 0.0 **** 0.06
11500 H 32.98232037080018 90.04952849147253 79.403993422877 H 0.0 **** 0.06
11501 C 109.93721517369966 42.73000372423655 73.74809866357356 C 0.0 **** -0.24
11502 H 110.27518779569428 42.79059694401377 74.78297690681183 H 0.0 **** 0.06
11503 H 109.36221850858962 41.814369222019366 73.60731052163538 H 0.0 **** 0.06
11504 H 110.80157127996728 42.722374837498876 73.08396893619624 H 0.0 **** 0.06
11505 H 109.31062342131048 43.59119889082794 73.51994844313714 H 0.0 **** 0.06
11506 C 72.54749067561244 33.74482608754936 113.5523696938393 C 0.0 **** -0.24
11507 H 71.54621304178022 34.175944497967556 113.56180394301668 H 0.0 **** 0.06
11508 H 72.58660136659188 32.93314050684979 112.82610884490498 H 0.0 **** 0.06
11509 H 72.78544053564542 33.357026564883775 114.543481407905 H 0.0 **** 0.06
11510 H 73.27062446125785 34.51314323286254 113.2794352039839 H 0.0 **** 0.06
11511 C 79.69866025353551 116.34746565041566 2.162360776765425 C 0.0 **** -0.24
11512 H 78.92442786357233 115.77221538991864 1.6551071090320306 H 0.0 **** 0.06
11513 H 79.44609536742527 117.4068227483964 2.126146992666758 H 0.0 **** 0.06
11514 H 80.65560024877564 116.1836479217834 1.6680779711228428 H 0.0 **** 0.06
11515 H 79.76678564858534 116.02477665540074 3.2019115382358123 H 0.0 **** 0.06
11516 C 105.33307455276918 99.30900850542952 1.1326894815315143 C 0.0 **** -0.24
11517 H 105.81812371002877 99.28097167014681 0.15595854113193752 H 0.0 **** 0.06
11518 H 104.72004086455411 100.20698914698445 1.2071838309823022 H 0.0 **** 0.06
11519 H 106.09287143819722 99.32066687605996 1.9147225964556043 H 0.0 **** 0.06
11520 H 104.7036696205322 98.42687542338916 1.2509122914019741 H 0.0 **** 0.06
11521 C 21.302564667865894 1.4631281086275152 98.23850803739373 C 0.0 **** -0.24
11522 H 21.468741349986814 1.6178911028238616 97.17240030639474 H 0.0 **** 0.06
11523 H 22.069310121572983 0.7951721902958866 98.63153894061026 H 0.0 **** 0.06
11524 H 20.319552779920272 1.0185302870882111 98.3933639776867 H 0.0 **** 0.06
11525 H 21.35435331930465 2.421089792736012 98.75643790031998 H 0.0 **** 0.06
11526 C 65.73116657308722 94.02278973940327 65.13768781706236 C 0.0 **** -0.24
11527 H 65.54316678490378 93.4740616108212 64.21381304446135 H 0.0 **** 0.06
11528 H 66.57233327247502 93.57096271760292 65.66328070422986 H 0.0 **** 0.06
11529 H 64.84331142325797 93.98273383364818 65.76937980720865 H 0.0 **** 0.06
11530 H 65.96398960803211 95.0610191570685 64.90231568073136 H 0.0 **** 0.06
11531 C 1.8400357842704693 68.69497779858278 4.526230566381514 C 0.0 **** -0.24
11532 H 2.2981323404306977 67.78189771591266 4.144427809666013 H 0.0 **** 0.06
11533 H 2.5936318790205064 69.28892253318088 5.044036112881457 H 0.0 **** 0.06
11534 H 1.0400703216439524 68.43635527450306 5.22041256680123 H 0.0 **** 0.06
11535 H 1.4305725959698066 69.26976627501105 3.6958053477833914 H 0.0 **** 0.06
11536 C 114.50888354870656 93.80833182383788 65.4321890815562 C 0.0 **** -0.24
11537 H 114.77908348622165 92.75303910752584 65.47058495695222 H 0.0 **** 0.06
11538 H 113.59889179628811 93.92949803781451 64.8432333842764 H 0.0 **** 0.06
11539 H 115.31794191021613 94.3742253232557 64.97075321507828 H 0.0 **** 0.06
11540 H 114.33892835050733 94.17728081067091 66.44406994802668 H 0.0 **** 0.06
11541 C 111.140903420541 23.601464056016113 55.05305591917309 C 0.0 **** -0.24
11542 H 111.78192922189395 22.71944837085624 55.02365672049792 H 0.0 **** 0.06
11543 H 111.6610736787741 24.41016592761426 55.56846961119617 H 0.0 **** 0.06
11544 H 110.2198993598054 23.36341675635083 55.584807688036186 H 0.0 **** 0.06
11545 H 110.90407732785118 23.911778850240438 54.0360490296705 H 0.0 **** 0.06
11546 C 51.62025337470291 23.597713418931054 41.21843512557189 C 0.0 **** -0.24
11547 H 51.35526822721948 22.955667234437282 40.377897450798514 H 0.0 **** 0.06
11548 H 50.864085292906566 23.503620664537575 41.99894998909838 H 0.0 **** 0.06
11549 H 51.668645186544325 24.633559703763034 40.882274918496705 H 0.0 **** 0.06
11550 H 52.59018690511394 23.297262756929413 41.61394653489282 H 0.0 **** 0.06
11551 C 93.27908797991341 0.14271465902211844 74.76735956359244 C 0.0 **** -0.24
11552 H 93.59611773711396 -0.5801464003704382 74.01513484174652 H 0.0 **** 0.06
11553 H 93.00032115252165 -0.38341928615227516 75.68115340074036 H 0.0 **** 0.06
11554 H 92.42153876573047 0.7032228304740329 74.39489491943192 H 0.0 **** 0.06
11555 H 94.09840524510034 0.8295120987730229 74.97932524311753 H 0.0 **** 0.06
11556 C 79.88646561130574 2.9496165921933084 35.64029222535938 C 0.0 **** -0.24
11557 H 80.9683362469494 3.073609603523437 35.60536996377512 H 0.0 **** 0.06
11558 H 79.4583067299339 3.6820283973120524 36.324023045889014 H 0.0 **** 0.06
11559 H 79.64747553761484 1.94427240339391 35.98803467323087 H 0.0 **** 0.06
11560 H 79.47198150595449 3.0966098433323452 34.64227270959117 H 0.0 **** 0.06
11561 C 51.524375725709916 11.088152613722709 6.164652592843353 C 0.0 **** -0.24
11562 H 52.519694348707844 11.274269326646873 5.760141256687845 H 0.0 **** 0.06
11563 H 50.78131774163859 11.225435935185953 5.377535556795593 H 0.0 **** 0.06
11564 H 51.32630997593621 11.78597258178624 6.977567811685617 H 0.0 **** 0.06
11565 H 51.4706669881826 10.06606053856423 6.540719312719759 H 0.0 **** 0.06
11566 C 84.52463705137495 36.11665020996922 1.6215136724822514 C 0.0 **** -0.24
11567 H 85.54035344312427 36.08248907470946 1.2274233317804146 H 0.0 **** 0.06
11568 H 84.05950144952598 37.06205141169079 1.342643822246373 H 0.0 **** 0.06
11569 H 84.55292028674185 36.030882430852955 2.706946677564588 H 0.0 **** 0.06
11570 H 83.94664900378996 35.29132318280996 1.2061751847644473 H 0.0 **** 0.06
11571 C 11.549012639915759 36.68321510372408 99.83870012857051 C 0.0 **** -0.24
11572 H 11.027241785273361 37.1266355909882 100.68733401121102 H 0.0 **** 0.06
11573 H 12.116035847651034 37.455456000102515 99.31737610748789 H 0.0 **** 0.06
11574 H 10.821615479718119 36.24281979762094 99.15616049005897 H 0.0 **** 0.06
11575 H 12.22975670670752 35.90964784997817 100.19353975870152 H 0.0 **** 0.06
11576 C 90.46549027903293 61.03168468425372 8.453841099980409 C 0.0 **** -0.24
11577 H 89.64798016591084 61.47734096925251 9.022011630275713 H 0.0 **** 0.06
11578 H 91.1281622877517 61.81805991645683 8.09399848894165 H 0.0 **** 0.06
11579 H 90.05905991796268 60.480151909537426 7.605874152608166 H 0.0 **** 0.06
11580 H 91.0239053490422 60.35036313627961 9.09634056727593 H 0.0 **** 0.06
11581 C 46.29321730282289 66.1629141566467 69.41199684879629 C 0.0 **** -0.24
11582 H 45.79724782655954 66.71857175854944 68.61556108340281 H 0.0 **** 0.06
11583 H 46.337980947827006 66.77929155685737 70.31092854375098 H 0.0 **** 0.06
11584 H 47.30506910805587 65.90358414569516 69.09873832901013 H 0.0 **** 0.06
11585 H 45.733257914963644 65.25141226375854 69.62247435981999 H 0.0 **** 0.06
11586 C 5.992258132137692 91.32785836907232 75.75913149709208 C 0.0 **** -0.24
11587 H 5.314527021759773 90.49242007814848 75.9325365876868 H 0.0 **** 0.06
11588 H 6.96397070999457 91.1049687967303 76.20007807387822 H 0.0 **** 0.06
11589 H 5.582324895023106 92.22849610333708 76.21602576157494 H 0.0 **** 0.06
11590 H 6.10778637548313 91.48490924234608 74.68669724974137 H 0.0 **** 0.06
11591 C 89.13752897594927 109.02966004292134 28.516064661536916 C 0.0 **** -0.24
11592 H 89.70638078128428 108.41430085169821 27.819039802117544 H 0.0 **** 0.06
11593 H 89.73548935614207 109.89416035575505 28.808141160719515 H 0.0 **** 0.06
11594 H 88.89136597509074 108.44278529132691 29.40029918799536 H 0.0 **** 0.06
11595 H 88.22000157692145 109.36763240918923 28.036333478580133 H 0.0 **** 0.06
11596 C 57.45014302716533 85.8764049384248 23.75184039972902 C 0.0 **** -0.24
11597 H 57.181954836942445 85.91497305908425 22.69613895080542 H 0.0 **** 0.06
11598 H 58.00131199888994 84.95789616860779 23.953375427210574 H 0.0 **** 0.06
11599 H 56.54464513110971 85.89807357037898 24.357651389475507 H 0.0 **** 0.06
11600 H 58.07254251005882 86.73632560521312 23.99906962116947 H 0.0 **** 0.06
11601 C 51.57616082138691 75.92084620821896 80.04065935885978 C 0.0 **** -0.24
11602 H 52.017250415147686 76.53736562602037 79.2578556130517 H 0.0 **** 0.06
11603 H 51.15691118071351 75.01678052143171 79.59863451725366 H 0.0 **** 0.06
11604 H 50.78567405470983 76.48093023400475 80.54193335763418 H 0.0 **** 0.06
11605 H 52.34372672901901 75.6490309430898 80.76477051213783 H 0.0 **** 0.06
11606 C 113.44668582653792 41.11833831139941 27.302187554020726 C 0.0 **** -0.24
11607 H 113.01078797243433 42.10611343623316 27.151577642288473 H 0.0 **** 0.06
11608 H 114.2192793327129 41.17536603340724 28.069299741452376 H 0.0 **** 0.06
11609 H 113.88564930649956 40.76768733846603 26.36807571384513 H 0.0 **** 0.06
11610 H 112.6692952511016 40.4246197355146 27.62147482671474 H 0.0 **** 0.06
11611 C 49.66233032920911 40.03677560250617 82.49414877570277 C 0.0 **** -0.24
11612 H 48.613978766456626 40.198481934504116 82.24589899468569 H 0.0 **** 0.06
11613 H 49.793349210571506 39.024172926705546 82.87734704370317 H 0.0 **** 0.06
11614 H 49.97022678106731 40.75521448960308 83.25396146014398 H 0.0 **** 0.06
11615 H 50.27193727069951 40.16919165582499 81.60079090727024 H 0.0 **** 0.06
11616 C 23.160944735765952 67.43664964568 115.0743006313556 C 0.0 **** -0.24
11617 H 23.025395253681666 66.53397235366802 114.47924772414018 H 0.0 **** 0.06
11618 H 22.32947678685167 68.11881866981545 114.89351758004834 H 0.0 **** 0.06
11619 H 24.096608089487432 67.92079353246396 114.79272504427058 H 0.0 **** 0.06
11620 H 23.19227756879812 67.174590164932 116.13243016814367 H 0.0 **** 0.06
11621 C 113.44412613555829 62.85602815974594 74.23840476950281 C 0.0 **** -0.24
11622 H 112.70736855672315 62.77367358265061 73.4395324762971 H 0.0 **** 0.06
11623 H 113.0510683477154 63.49173768766364 75.0321383316369 H 0.0 **** 0.06
11624 H 114.3606185771436 63.29271771600458 73.84240127858453 H 0.0 **** 0.06
11625 H 113.65766332022459 61.86497714219272 74.6385768649007 H 0.0 **** 0.06
11626 C 113.44777621818139 90.40005642929918 82.14486964169038 C 0.0 **** -0.24
11627 H 112.8252868723226 91.08841370393947 82.71823719985278 H 0.0 **** 0.06
11628 H 113.612005612331 90.80563899367178 81.14674618610627 H 0.0 **** 0.06
11629 H 112.94523001805241 89.43568087293431 82.06859982468168 H 0.0 **** 0.06
11630 H 114.4055357143677 90.27155025023876 82.64882783102863 H 0.0 **** 0.06
11631 C 55.72229257084595 75.96694624281491 115.6979248939059 C 0.0 **** -0.24
11632 H 55.413445326434584 75.07216239014821 116.23904987463567 H 0.0 **** 0.06
11633 H 56.75331531394383 76.20966995162732 115.95629924091561 H 0.0 **** 0.06
11634 H 55.07314349029352 76.79929000813402 115.97290924213675 H 0.0 **** 0.06
11635 H 55.648241343312804 75.78728286396196 114.62600354679763 H 0.0 **** 0.06
11636 C 77.87510359933484 49.77533482176682 81.1544732283696 C 0.0 **** -0.24
11637 H 78.79166843265489 50.27528252357854 80.84115043428923 H 0.0 **** 0.06
11638 H 77.71753171831014 49.93997658094344 82.22047424611682 H 0.0 **** 0.06
11639 H 77.95934347362885 48.705775739459284 80.96065628320471 H 0.0 **** 0.06
11640 H 77.03187077274521 50.18030444308579 80.59561194986762 H 0.0 **** 0.06
11641 C 3.2450403647604986 61.84470181295483 0.38038210108746284 C 0.0 **** -0.24
11642 H 4.2361799060202685 61.394012231477824 0.43268203079045975 H 0.0 **** 0.06
11643 H 2.496647972993543 61.11078016847765 0.678499165621048 H 0.0 **** 0.06
11644 H 3.0485245602613986 62.16976151710799 -0.6419195994517395 H 0.0 **** 0.06
11645 H 3.200738614195444 62.70272068029882 1.0500468357224975 H 0.0 **** 0.06
11646 C 94.79716777065303 53.78647970184301 77.08243558094921 C 0.0 **** -0.24
11647 H 94.62760063232238 54.556688068601375 77.83425269330692 H 0.0 **** 0.06
11648 H 95.61806084080317 54.08754145513058 76.43260231233458 H 0.0 **** 0.06
11649 H 93.89204124845713 53.65540254553497 76.48843491505968 H 0.0 **** 0.06
11650 H 95.04752224874673 52.84663818855631 77.574490994715 H 0.0 **** 0.06
11651 C 31.600901413659614 50.35285157505024 81.05532559656385 C 0.0 **** -0.24
11652 H 32.00846309366179 50.587377987753 82.03847298121798 H 0.0 **** 0.06
11653 H 32.346917347884954 50.574042016444906 80.29136745797027 H 0.0 **** 0.06
11654 H 30.70999219347317 50.955221535229384 80.87770195316659 H 0.0 **** 0.06
11655 H 31.338915293485485 49.295910634833206 81.01328925925077 H 0.0 **** 0.06
11656 C 93.41192033106276 114.83122036400775 114.22157737788376 C 0.0 **** -0.24
11657 H 92.34684154676981 114.68606729235346 114.40297679829473 H 0.0 **** 0.06
11658 H 93.93518606801831 114.90334973878328 115.17505956920046 H 0.0 **** 0.06
11659 H 93.56174010641033 115.749491358021 113.65359728016153 H 0.0 **** 0.06
11660 H 93.80162333982378 113.98513414698846 113.65490226191558 H 0.0 **** 0.06
11661 C 107.16755653656242 94.93700505897391 58.00964593281458 C 0.0 **** -0.24
11662 H 107.36022541121895 95.65280671664232 57.209632971150796 H 0.0 **** 0.06
11663 H 107.48709441049138 93.94449486904836 57.6931242232931 H 0.0 **** 0.06
11664 H 106.10135375192434 94.92212598893792 58.234210315706974 H 0.0 **** 0.06
11665 H 107.72303122269801 95.23120519558233 58.90020593853623 H 0.0 **** 0.06
11666 C 37.981888336072984 55.689347453044014 15.239741904543052 C 0.0 **** -0.24
11667 H 36.94135557405785 55.36635324977523 15.274731762089118 H 0.0 **** 0.06
11668 H 38.617339382927 54.84004290504296 14.986874800040027 H 0.0 **** 0.06
11669 H 38.27195496130736 56.08367066862147 16.213481347197956 H 0.0 **** 0.06
11670 H 38.09611028374559 56.466181747709705 14.484141644683518 H 0.0 **** 0.06
11671 C 102.1479371292728 111.66771658501135 93.73882408177707 C 0.0 **** -0.24
11672 H 102.4322200516674 111.4257684888029 92.71515457707673 H 0.0 **** 0.06
11673 H 102.92332841590044 111.31865187110243 94.42290033030932 H 0.0 **** 0.06
11674 H 101.20412862078692 111.17813758431963 93.97897584327933 H 0.0 **** 0.06
11675 H 102.03394636474536 112.74724507011028 93.8388607601511 H 0.0 **** 0.06
11676 C 75.09945733382042 69.74265940407395 10.311631046519523 C 0.0 **** -0.24
11677 H 75.95447883837147 69.2608122899797 9.836694638847078 H 0.0 **** 0.06
11678 H 74.73852443216671 70.5514827863052 9.675742546936846 H 0.0 **** 0.06
11679 H 75.40042508710269 70.14716494712141 11.278404901285626 H 0.0 **** 0.06
11680 H 74.30440097764054 69.0111775928894 10.455682099008555 H 0.0 **** 0.06
11681 C 73.9846876271778 79.84795027316892 58.86023689669713 C 0.0 **** -0.24
11682 H 73.43605079392398 80.59813078681236 58.28905837940488 H 0.0 **** 0.06
11683 H 74.1212305285722 80.19937666756223 59.883462947319344 H 0.0 **** 0.06
11684 H 74.95866531216043 79.68151045272006 58.399286507099816 H 0.0 **** 0.06
11685 H 73.42218243117713 78.91470760923534 58.867162161816736 H 0.0 **** 0.06
11686 C 113.28570873073097 104.07602748035802 98.98680057603218 C 0.0 **** -0.24
11687 H 112.47669268390005 104.47203755329963 98.3737557421316 H 0.0 **** 0.06
11688 H 113.36358762323464 102.9988552395437 98.83518962829831 H 0.0 **** 0.06
11689 H 113.07849143080435 104.28125486987895 100.03807637164567 H 0.0 **** 0.06
11690 H 114.22337513083437 104.55317719703638 98.70192721502306 H 0.0 **** 0.06
11691 C 98.97119649349312 60.98070068246066 113.55301220571545 C 0.0 **** -0.24
11692 H 99.03279015002659 61.193431479877994 112.48480346601178 H 0.0 **** 0.06
11693 H 98.47094393110734 61.80656397432903 114.0584893518515 H 0.0 **** 0.06
11694 H 99.97651773566639 60.86052874967188 113.95691179753001 H 0.0 **** 0.06
11695 H 98.40493944440527 60.062412468568475 113.7077431358421 H 0.0 **** 0.06
11696 C 66.53825398028152 92.21685209057512 41.601990587526814 C 0.0 **** -0.24
11697 H 66.80402752913187 93.20389100863167 41.22168854702099 H 0.0 **** 0.06
11698 H 66.98269737364012 91.45103412174797 40.96493409448733 H 0.0 **** 0.06
11699 H 65.45420500054371 92.10723180923307 41.601651301000814 H 0.0 **** 0.06
11700 H 66.91498496915767 92.10623529559132 42.61889552949086 H 0.0 **** 0.06
11701 C 69.65554446521733 67.25525206050267 33.08910381718965 C 0.0 **** -0.24
11702 H 70.29770053992914 66.50127586352579 33.54255871062361 H 0.0 **** 0.06
11703 H 68.84533930089918 67.50344389131652 33.77633849399513 H 0.0 **** 0.06
11704 H 69.23722280493794 66.86564815351045 32.160907306286504 H 0.0 **** 0.06
11705 H 70.23919959631718 68.1509231928629 32.87734958779157 H 0.0 **** 0.06
11706 C 96.94882797459721 40.097872032866206 9.546903789862071 C 0.0 **** -0.24
11707 H 97.08050781532728 40.60786965600201 8.593031280974273 H 0.0 **** 0.06
11708 H 97.7147464243993 40.43222638213015 10.246829553984611 H 0.0 **** 0.06
11709 H 97.03752113546807 39.02116514506767 9.39829075924304 H 0.0 **** 0.06
11710 H 95.96288775856345 40.32882664726466 9.94850650465608 H 0.0 **** 0.06
11711 C 57.06526541138277 41.870558639035636 98.05925815216355 C 0.0 **** -0.24
11712 H 58.0660272219327 42.28662519072546 97.93645960986242 H 0.0 **** 0.06
11713 H 56.46245639276316 42.111076986204665 97.18293958079471 H 0.0 **** 0.06
11714 H 56.601836037532905 42.29685423950784 98.94875476167036 H 0.0 **** 0.06
11715 H 57.13351023896098 40.78734373328555 98.16777162842752 H 0.0 **** 0.06
11716 C 102.56682883155207 72.0472832523331 43.782687045709736 C 0.0 **** -0.24
11717 H 101.89802497218028 72.72875379801334 44.30911206431955 H 0.0 **** 0.06
11718 H 102.9376106728574 72.53039297571695 42.87792637804279 H 0.0 **** 0.06
11719 H 102.0235448582396 71.14110540427467 43.51545273712935 H 0.0 **** 0.06
11720 H 103.40635246370547 71.79132607558412 44.429176000960865 H 0.0 **** 0.06
11721 C 1.8795543757266895 90.98397599868446 3.5617833471865055 C 0.0 **** -0.24
11722 H 1.5655920771815666 90.27914966835462 4.331657026342299 H 0.0 **** 0.06
11723 H 1.6776723540506673 90.56081800983532 2.577165654849182 H 0.0 **** 0.06
11724 H 2.946691848275421 91.18008741206773 3.6612209509567606 H 0.0 **** 0.06
11725 H 1.3262148466550006 91.91719519601003 3.6770759857290756 H 0.0 **** 0.06
11726 C 34.21276013728764 38.07437487170099 100.28667678401831 C 0.0 **** -0.24
11727 H 35.24122859541136 37.754735525633876 100.11602702963734 H 0.0 **** 0.06
11728 H 34.094048186519416 39.10662723130249 99.95305174148271 H 0.0 **** 0.06
11729 H 33.98263201071015 38.007074030475906 101.3496111949122 H 0.0 **** 0.06
11730 H 33.53491300332354 37.43166085089638 99.72599786787288 H 0.0 **** 0.06
11731 C 0.7284106083202033 106.84311296918102 13.770375699990666 C 0.0 **** -0.24
11732 H 0.5177713905321468 107.38709820492241 14.690913110343388 H 0.0 **** 0.06
11733 H 1.1021953422179536 107.5359920605506 13.0168417099581 H 0.0 **** 0.06
11734 H -0.18598991171771218 106.37191663347542 13.40954654106406 H 0.0 **** 0.06
11735 H 1.4793666187614036 106.07652297680485 13.964447558800401 H 0.0 **** 0.06
11736 C 27.175217678729553 24.9811777517333 47.08788790263034 C 0.0 **** -0.24
11737 H 27.907408508667288 25.407944807924423 47.77414186146282 H 0.0 **** 0.06
11738 H 26.203669059778804 24.930741282878472 47.57988021190059 H 0.0 **** 0.06
11739 H 27.490266532846505 23.97844455613844 46.79899288999323 H 0.0 **** 0.06
11740 H 27.101946006150513 25.609114596188704 46.19987576612985 H 0.0 **** 0.06
11741 C 112.82826473225876 64.00473667650937 94.48833593597232 C 0.0 **** -0.24
11742 H 113.77567031325002 63.77666468273818 94.00002886834437 H 0.0 **** 0.06
11743 H 112.88079416690024 63.71174871877428 95.53775757858517 H 0.0 **** 0.06
11744 H 112.02530523631403 63.45384536359635 93.99744507421548 H 0.0 **** 0.06
11745 H 112.63169441500804 65.07437380999022 94.41880573358418 H 0.0 **** 0.06
11746 C 90.78125188891278 90.19158473351897 40.83957107842298 C 0.0 **** -0.24
11747 H 91.73952870301378 89.76639237103612 41.137851089322766 H 0.0 **** 0.06
11748 H 90.32942439759515 89.56454220957289 40.07180647874965 H 0.0 **** 0.06
11749 H 90.93664380575237 91.19540854797907 40.44445836468314 H 0.0 **** 0.06
11750 H 90.1200753396707 90.24068496313609 41.70445700956199 H 0.0 **** 0.06
11751 C 99.2264976516486 85.9793661174271 8.635463299847714 C 0.0 **** -0.24
11752 H 99.47196935673628 84.92547451922724 8.503424962561326 H 0.0 **** 0.06
11753 H 100.13227608698483 86.53502042470797 8.876844003997064 H 0.0 **** 0.06
11754 H 98.50699156544368 86.08467882974708 9.448123901420615 H 0.0 **** 0.06
11755 H 98.79469396102016 86.3697386109655 7.714678432287428 H 0.0 **** 0.06
11756 C 17.487690798712606 46.9496691339977 47.16242557492211 C 0.0 **** -0.24
11757 H 17.47953494005344 48.02406698268794 47.34628616273591 H 0.0 **** 0.06
11758 H 16.480808332143596 46.6163015176503 46.90971479720429 H 0.0 **** 0.06
11759 H 17.827872147091057 46.43059858989278 48.0586740918564 H 0.0 **** 0.06
11760 H 18.162524539870986 46.72770572826033 46.336027000027684 H 0.0 **** 0.06
11761 C 58.83394248040184 28.711964471265517 3.3315168339215724 C 0.0 **** -0.24
11762 H 59.15024565116686 29.16808228026153 2.393406597302235 H 0.0 **** 0.06
11763 H 59.619336481003735 28.051604401879985 3.698230301031032 H 0.0 **** 0.06
11764 H 57.922171148035154 28.137325442853594 3.1659570598236844 H 0.0 **** 0.06
11765 H 58.64292386409662 29.492713855738003 4.0679109305746355 H 0.0 **** 0.06
11766 C 36.61203243680245 83.95638406361678 28.537028939909618 C 0.0 **** -0.24
11767 H 35.87434360501004 83.28361153327552 28.9743643641049 H 0.0 **** 0.06
11768 H 36.448226479154414 84.96695808855864 28.910304541060952 H 0.0 **** 0.06
11769 H 36.51192904145455 83.94871981923293 27.451915810876045 H 0.0 **** 0.06
11770 H 37.61411425748889 83.6249193359811 28.811594416460906 H 0.0 **** 0.06
11771 C 96.10650792005464 15.226413981095618 75.19346115210965 C 0.0 **** -0.24
11772 H 95.8660828384553 14.687560836970817 76.10963744637593 H 0.0 **** 0.06
11773 H 95.54167739911114 14.802006640787965 74.36341605756633 H 0.0 **** 0.06
11774 H 97.17324447194474 15.138909030334275 74.99037027624155 H 0.0 **** 0.06
11775 H 95.8435848555832 16.277730220400827 75.31203860730304 H 0.0 **** 0.06
11776 C 84.85885527394677 74.13092089091481 22.43378439238097 C 0.0 **** -0.24
11777 H 84.07901470025251 74.15964195050924 23.1944050020262 H 0.0 **** 0.06
11778 H 84.47247524282733 73.64758696134402 21.536117536334643 H 0.0 **** 0.06
11779 H 85.71412812088624 73.56958523827518 22.810100235088612 H 0.0 **** 0.06
11780 H 85.16950053253527 75.14809221258395 22.193871855363085 H 0.0 **** 0.06
11781 C 112.94931424064892 62.592776167715066 79.06081550273399 C 0.0 **** -0.24
11782 H 112.82169384912076 62.43782058168204 77.99029615996443 H 0.0 **** 0.06
11783 H 112.05347412509225 63.060590165641365 79.47031589606951 H 0.0 **** 0.06
11784 H 113.80896024982248 63.239553996161355 79.23438712011131 H 0.0 **** 0.06
11785 H 113.11342008977364 61.632141348637 79.54964780017758 H 0.0 **** 0.06
11786 C 80.79337799441208 97.10284262049396 113.1412544129611 C 0.0 **** -0.24
11787 H 81.09606787070413 97.9221934097288 112.48949290152856 H 0.0 **** 0.06
11788 H 81.61145434577747 96.85797222641631 113.81927328155817 H 0.0 **** 0.06
11789 H 80.54744541856451 96.22960771195574 112.53804146762394 H 0.0 **** 0.06
11790 H 79.91962769836437 97.40274376371838 113.72008401516642 H 0.0 **** 0.06
11791 C 94.64997017063743 5.326789624433758 64.93339107385555 C 0.0 **** -0.24
11792 H 94.93736571805934 6.0938319473884235 65.65281505433435 H 0.0 **** 0.06
11793 H 93.75725549001743 4.812480704655002 65.28903948145205 H 0.0 **** 0.06
11794 H 95.46394271450052 4.610155582819658 64.8221375966915 H 0.0 **** 0.06
11795 H 94.44261040681974 5.792187852902117 63.96928244905723 H 0.0 **** 0.06
11796 C 41.118465544027174 0.09004035614657369 104.09445888738645 C 0.0 **** -0.24
11797 H 41.4683092787439 -0.836951155560655 103.63905783190464 H 0.0 **** 0.06
11798 H 40.03880294095171 0.17254841735598347 103.96735231972602 H 0.0 **** 0.06
11799 H 41.60808212677313 0.9373411276955039 103.61320527835662 H 0.0 **** 0.06
11800 H 41.36104851020238 0.08586314034710085 105.1575247701978 H 0.0 **** 0.06
11801 C 17.964947412752803 51.30114037290534 55.106386562362275 C 0.0 **** -0.24
11802 H 18.272142163312672 52.31569956683876 54.853778252694156 H 0.0 **** 0.06
11803 H 17.22998624289701 50.95384690860334 54.379953278437156 H 0.0 **** 0.06
11804 H 17.523133153335145 51.292617711136984 56.102431464778356 H 0.0 **** 0.06
11805 H 18.833439295138557 50.642897566694444 55.08813247978442 H 0.0 **** 0.06
11806 C 109.53581807253897 35.81666650776782 93.71964767802714 C 0.0 **** -0.24
11807 H 109.62581888207131 35.41655000913275 94.72928205506506 H 0.0 **** 0.06
11808 H 109.52344457071865 34.99579707844444 93.0031211953553 H 0.0 **** 0.06
11809 H 110.38319801632014 36.470451900995755 93.51132124822763 H 0.0 **** 0.06
11810 H 108.60930098657519 36.386021946727 93.63662045635539 H 0.0 **** 0.06
11811 C 48.35296025233847 7.013607649627488 92.96322570076183 C 0.0 **** -0.24
11812 H 49.34243403460587 7.134405170492684 93.40331036681957 H 0.0 **** 0.06
11813 H 47.67981247525818 7.769696744415512 93.3697825005195 H 0.0 **** 0.06
11814 H 47.96973014744142 6.020953801095587 93.19915148680158 H 0.0 **** 0.06
11815 H 48.41925747193417 7.130296858422767 91.88154262820694 H 0.0 **** 0.06
11816 C 41.62673020946485 3.414715796682543 96.98545311977736 C 0.0 **** -0.24
11817 H 41.35766083395251 2.4256869190381423 97.35533617462241 H 0.0 **** 0.06
11818 H 42.582697340921015 3.360160901226635 96.46297472530719 H 0.0 **** 0.06
11819 H 41.70959113943974 4.106007147286945 97.82342461869808 H 0.0 **** 0.06
11820 H 40.8568805722704 3.767223271599775 96.2983606695762 H 0.0 **** 0.06
11821 C 35.48180469368356 18.928921744296645 10.182604397515888 C 0.0 **** -0.24
11822 H 34.39676179848175 18.972878007021592 10.088797549326642 H 0.0 **** 0.06
11823 H 35.838702342044314 17.963672484379913 9.822651717617191 H 0.0 **** 0.06
11824 H 35.76171424192165 19.053730170009857 11.228394260708143 H 0.0 **** 0.06
11825 H 35.929606488792615 19.726316527427628 9.588578183468456 H 0.0 **** 0.06
11826 C 21.77895476300526 74.80038150352289 87.05679140116229 C 0.0 **** -0.24
11827 H 20.981515349596492 75.51988072380561 86.87012796511328 H 0.0 **** 0.06
11828 H 22.69318993629153 75.13618920567359 86.56821269316436 H 0.0 **** 0.06
11829 H 21.49015545031554 73.82766396763193 86.6594848708823 H 0.0 **** 0.06
11830 H 21.949141380680203 74.71772985756255 88.13064205886894 H 0.0 **** 0.06
11831 C 64.80496935871281 80.09845380175307 89.10520768451562 C 0.0 **** -0.24
11832 H 65.6035925544598 79.72143698492178 89.74432683960265 H 0.0 **** 0.06
11833 H 64.61166035773786 81.14489226503576 89.34543519037817 H 0.0 **** 0.06
11834 H 63.90019895507763 79.51397843188803 89.27167994713244 H 0.0 **** 0.06
11835 H 65.10522670519325 80.01470811331572 88.06077331821194 H 0.0 **** 0.06
11836 C 113.13323521561472 47.496961251657524 93.184541078714 C 0.0 **** -0.24
11837 H 113.85988304939822 48.17119508710036 92.73060092955302 H 0.0 **** 0.06
11838 H 112.39091690414037 48.0777606690807 93.73264559972131 H 0.0 **** 0.06
11839 H 113.64363730335187 46.82025775536047 93.86947758792093 H 0.0 **** 0.06
11840 H 112.63912789333618 46.918918474938266 92.40331224145825 H 0.0 **** 0.06
11841 C 76.0411355711847 37.58648338949081 97.86919397392305 C 0.0 **** -0.24
11842 H 75.00679268336597 37.37192557178554 98.14109432117755 H 0.0 **** 0.06
11843 H 76.6875006323433 36.79651353776663 98.2512381973838 H 0.0 **** 0.06
11844 H 76.33921383937133 38.54146883573415 98.30167876729311 H 0.0 **** 0.06
11845 H 76.12840896633932 37.634695600693476 96.78429267164799 H 0.0 **** 0.06
11846 C 81.78106346952285 29.819236293912766 97.06755259816546 C 0.0 **** -0.24
11847 H 81.44088826305662 30.827622351133755 97.30330534156164 H 0.0 **** 0.06
11848 H 81.2477066151819 29.452459521341353 96.18967884839046 H 0.0 **** 0.06
11849 H 81.58352946459217 29.16236394579478 97.91454078469121 H 0.0 **** 0.06
11850 H 82.85167484953061 29.836497196384755 96.86178976716428 H 0.0 **** 0.06
11851 C 19.65080887426282 16.349158954654825 81.09007164845991 C 0.0 **** -0.24
11852 H 19.061559542434452 16.1521914998861 81.98557374351773 H 0.0 **** 0.06
11853 H 20.449278124113647 17.052486364245084 81.32878369527381 H 0.0 **** 0.06
11854 H 19.00881933001159 16.77641847566875 80.31917039436257 H 0.0 **** 0.06
11855 H 20.083204941326443 15.41770765065047 80.72715847897331 H 0.0 **** 0.06
11856 C 71.23618886239521 58.25549914603389 65.69873558340242 C 0.0 **** -0.24
11857 H 72.2024381821112 58.75897944900881 65.66467955860645 H 0.0 **** 0.06
11858 H 71.08309836824864 57.70137880524799 64.77254665776877 H 0.0 **** 0.06
11859 H 70.44469256650228 58.996311871372946 65.81418736407863 H 0.0 **** 0.06
11860 H 71.21590214208314 57.566813083078564 66.54258144844087 H 0.0 **** 0.06
11861 C 29.131515836706797 101.90220425161834 69.36598635627226 C 0.0 **** -0.24
11862 H 29.836852533602837 101.08286745638617 69.23019874330234 H 0.0 **** 0.06
11863 H 29.254189550064723 102.32572576054389 70.36315018166945 H 0.0 **** 0.06
11864 H 28.113912330677465 101.52925269086234 69.25227105155867 H 0.0 **** 0.06
11865 H 29.322662879982943 102.67251811504443 68.61876394346982 H 0.0 **** 0.06
11866 C 84.03517465397434 30.119017264288644 34.658067489234384 C 0.0 **** -0.24
11867 H 84.34912869237624 29.22668447878143 34.115177895287985 H 0.0 **** 0.06
11868 H 83.9238809554964 29.880185852366488 35.715496070472426 H 0.0 **** 0.06
11869 H 83.08112721286906 30.467909174893556 34.26194134343402 H 0.0 **** 0.06
11870 H 84.7863215572433 30.899418550225263 34.53692658997423 H 0.0 **** 0.06
11871 C 97.3674483293118 97.30482397738749 5.173113307690301 C 0.0 **** -0.24
11872 H 97.83573590156573 96.8514455685366 4.2983574297547875 H 0.0 **** 0.06
11873 H 96.72715146660636 98.12832017824192 4.856204919590823 H 0.0 **** 0.06
11874 H 98.14010083613277 97.68182364561679 5.843022486102882 H 0.0 **** 0.06
11875 H 96.76847573438215 96.55677782941393 5.692349041509459 H 0.0 **** 0.06
11876 C 79.25491590885696 82.94027408713595 64.72916099436242 C 0.0 **** -0.24
11877 H 80.32689332466396 83.04232074082276 64.89609159622 H 0.0 **** 0.06
11878 H 79.07621546797137 82.59627206891696 63.710193008541694 H 0.0 **** 0.06
11879 H 78.77087193608492 83.90691341005294 64.8762696156349 H 0.0 **** 0.06
11880 H 78.84451127841183 82.21748927016608 65.43423411519063 H 0.0 **** 0.06
11881 C 19.69279491671137 50.72818664337465 58.56562076353067 C 0.0 **** -0.24
11882 H 19.272706006594703 51.580516517727624 59.09886368278374 H 0.0 **** 0.06
11883 H 18.91307265278437 49.985600260582515 58.39558361235324 H 0.0 **** 0.06
11884 H 20.49209505569051 50.28498887349987 59.15998177926031 H 0.0 **** 0.06
11885 H 20.09314894052708 51.05993144583228 57.60782329831208 H 0.0 **** 0.06
11886 C 32.33832680513794 98.46619340473256 61.7875931883807 C 0.0 **** -0.24
11887 H 31.978929429225985 97.80804785712093 60.99604724909415 H 0.0 **** 0.06
11888 H 33.16950927717272 99.06429838756253 61.41369332217204 H 0.0 **** 0.06
11889 H 32.67325287355217 97.86663230819158 62.634168051672305 H 0.0 **** 0.06
11890 H 31.53003706066221 99.12453765688423 62.10550116755098 H 0.0 **** 0.06
11891 C 71.55678968544711 5.385300128064751 88.09367545937963 C 0.0 **** -0.24
11892 H 72.4242957297541 5.544400193746084 87.45274533021743 H 0.0 **** 0.06
11893 H 71.3562392611689 4.3176026697100784 88.17492540959597 H 0.0 **** 0.06
11894 H 70.69002360572429 5.887254354000612 87.66333547445348 H 0.0 **** 0.06
11895 H 71.75736407229647 5.794034561645049 89.08390373030079 H 0.0 **** 0.06
11896 C 18.32299370530903 29.26910860040627 13.682395379950009 C 0.0 **** -0.24
11897 H 19.155968837411322 28.729467447131086 14.132046100560927 H 0.0 **** 0.06
11898 H 17.60453206258714 29.539197790361257 14.45714549220159 H 0.0 **** 0.06
11899 H 17.83652776759601 28.635228172345847 12.940194915097578 H 0.0 **** 0.06
11900 H 18.693536255643167 30.173492313389865 13.199867370380986 H 0.0 **** 0.06
11901 C 74.50998189055238 97.49618595600813 100.80470641553865 C 0.0 **** -0.24
11902 H 73.88770030103177 96.61553484090442 100.64020321477045 H 0.0 **** 0.06
11903 H 74.36195774438539 97.85915714417632 101.82192455870728 H 0.0 **** 0.06
11904 H 74.22996925594805 98.27520510754266 100.0950275453086 H 0.0 **** 0.06
11905 H 75.55780031779688 97.23285374732384 100.66033655335644 H 0.0 **** 0.06
11906 C 21.532475219569832 110.85148299103975 35.62567997253214 C 0.0 **** -0.24
11907 H 21.40553517341695 111.5163271906186 36.47984117407114 H 0.0 **** 0.06
11908 H 20.71840756865896 110.12659980000538 35.60569970757143 H 0.0 **** 0.06
11909 H 22.48361245439878 110.32754203193937 35.71181190426691 H 0.0 **** 0.06
11910 H 21.521433412389882 111.43628033750261 34.7060740303433 H 0.0 **** 0.06
11911 C 78.67061557335865 89.89469526155682 81.7057196063486 C 0.0 **** -0.24
11912 H 79.39115325520922 89.0771025391154 81.7243890323239 H 0.0 **** 0.06
11913 H 78.07789492061497 89.8356061894579 80.79191504520273 H 0.0 **** 0.06
11914 H 79.20140216774243 90.84588644725704 81.73348354730396 H 0.0 **** 0.06
11915 H 78.01316206482284 89.81971610286115 82.57123154149082 H 0.0 **** 0.06
11916 C 77.71816940764785 97.26788897825523 98.90790229542873 C 0.0 **** -0.24
11917 H 77.03804074302423 97.25892445845741 98.055873756258 H 0.0 **** 0.06
11918 H 78.73708530183382 97.43064449451296 98.5580338218152 H 0.0 **** 0.06
11919 H 77.6609905170559 96.31181753458475 99.42870260434978 H 0.0 **** 0.06
11920 H 77.43548284011104 98.06995134680886 99.5898878080209 H 0.0 **** 0.06
11921 C 86.10275779751498 80.50113512873023 14.136341274162447 C 0.0 **** -0.24
11922 H 85.99949842883137 79.42978187612289 13.963941503870728 H 0.0 **** 0.06
11923 H 87.13293377830348 80.80201372855149 13.944864115065698 H 0.0 **** 0.06
11924 H 85.84471023057898 80.72807536868294 15.1709922174459 H 0.0 **** 0.06
11925 H 85.43473023726398 81.0429200683212 13.46667700652472 H 0.0 **** 0.06
11926 C 59.73804640264617 50.4637014737244 38.61759739472157 C 0.0 **** -0.24
11927 H 60.29802038994776 49.764230157691145 39.23899262066028 H 0.0 **** 0.06
11928 H 59.58884321913144 50.03128017290297 37.62785791568479 H 0.0 **** 0.06
11929 H 60.294439046106596 51.39637560309933 38.52795296144288 H 0.0 **** 0.06
11930 H 58.768831677733765 50.66057245180701 39.077096761794884 H 0.0 **** 0.06
11931 C 12.288424200721323 28.344494027858957 62.31132882894781 C 0.0 **** -0.24
11932 H 12.400442578365528 27.42395437287564 61.73804301828068 H 0.0 **** 0.06
11933 H 13.207546887487894 28.540749542250836 62.86437158167746 H 0.0 **** 0.06
11934 H 11.458720045990589 28.238915923277972 63.00897855367538 H 0.0 **** 0.06
11935 H 12.08951483414694 29.173143978734714 61.631654426935484 H 0.0 **** 0.06
11936 C 78.31725175782111 111.56926074659549 114.9117123878227 C 0.0 **** -0.24
11937 H 77.70366268142047 112.43774963974755 114.67164266832044 H 0.0 **** 0.06
11938 H 77.67689286202551 110.75612551831652 115.2542931517925 H 0.0 **** 0.06
11939 H 79.02534208941935 111.83057984447036 115.69771005961138 H 0.0 **** 0.06
11940 H 78.86261913919404 111.25290212117423 114.02191484274465 H 0.0 **** 0.06
11941 C 40.96533182831796 112.32605058160702 94.66499763389606 C 0.0 **** -0.24
11942 H 40.596014301208584 113.26969671249236 94.26336905800608 H 0.0 **** 0.06
11943 H 40.19822992666835 111.55904887409314 94.55213445076672 H 0.0 **** 0.06
11944 H 41.20311021400522 112.44965530552152 95.7212032177041 H 0.0 **** 0.06
11945 H 41.86114091930054 112.02662572812822 94.12273507462146 H 0.0 **** 0.06
11946 C 51.87839857822348 106.14599551078842 75.42815773501658 C 0.0 **** -0.24
11947 H 51.46134910487251 105.25032588366946 75.8891042085877 H 0.0 **** 0.06
11948 H 52.96655181301932 106.10893933941136 75.48474726582361 H 0.0 **** 0.06
11949 H 51.51541857490619 107.02774796131413 75.95562532775858 H 0.0 **** 0.06
11950 H 51.568857554407685 106.19424721351555 74.38391871989882 H 0.0 **** 0.06
11951 C 46.001091176136185 23.418369894174162 61.83395830381019 C 0.0 **** -0.24
11952 H 45.709476561201086 22.395793884233484 61.59328172432183 H 0.0 **** 0.06
11953 H 45.2474856839755 23.866822411593432 62.48300159508497 H 0.0 **** 0.06
11954 H 46.08172199239739 23.998730558046276 60.91510678812983 H 0.0 **** 0.06
11955 H 46.96302642396529 23.41061385520223 62.34524913337029 H 0.0 **** 0.06
11956 C 67.12322281113495 52.214595432480564 42.54647029882048 C 0.0 **** -0.24
11957 H 67.19623086679707 51.145044380915635 42.74469583681086 H 0.0 **** 0.06
11958 H 66.11691477353475 52.5601054940322 42.78118893765608 H 0.0 **** 0.06
11959 H 67.33621770688313 52.40401440247166 41.49406275683795 H 0.0 **** 0.06
11960 H 67.84524055724773 52.748193568434885 43.164924333677625 H 0.0 **** 0.06
11961 C 0.9842269426014525 64.34010264967347 31.916494500125623 C 0.0 **** -0.24
11962 H 0.4669110876013747 64.05876235822615 30.999098768649446 H 0.0 **** 0.06
11963 H 1.2742339742947308 65.38959455553561 31.861707168462544 H 0.0 **** 0.06
11964 H 1.8751446130815168 63.72292570345609 32.0345720793224 H 0.0 **** 0.06
11965 H 0.32162506189374085 64.1897376573641 32.76784048478413 H 0.0 **** 0.06
11966 C 0.41091413036457425 6.460123824864013 88.52305710005194 C 0.0 **** -0.24
11967 H -0.2679678595431767 6.037930967239845 89.26457409289438 H 0.0 **** 0.06
11968 H 0.46024431239597163 7.541110372853694 88.65076588379472 H 0.0 **** 0.06
11969 H 0.04586148555738134 6.227848568053673 87.52294975689827 H 0.0 **** 0.06
11970 H 1.4050286412923327 6.03192324667998 88.65532814018022 H 0.0 **** 0.06
11971 C 13.756193684232755 8.955939314935094 103.4363984651286 C 0.0 **** -0.24
11972 H 13.055156353830455 9.504496165615102 104.06599996349516 H 0.0 **** 0.06
11973 H 13.826433825147234 7.9257363401735645 103.78431522524559 H 0.0 **** 0.06
11974 H 14.738202220422323 9.426741963098092 103.4922475956881 H 0.0 **** 0.06
11975 H 13.404406437396773 8.969531983129126 102.40529183602766 H 0.0 **** 0.06
11976 C 113.80347662977161 36.730325827187215 0.6565596828916078 C 0.0 **** -0.24
11977 H 112.9788784445953 36.29292294009633 0.09360807023902673 H 0.0 **** 0.06
11978 H 114.14330585547359 37.63796415918483 0.1564878939502723 H 0.0 **** 0.06
11979 H 114.62535754932425 36.016586221634185 0.7103693262676849 H 0.0 **** 0.06
11980 H 113.46691705861468 36.974464430744035 1.6646365749025076 H 0.0 **** 0.06
11981 C 88.03026963876422 37.964653710778265 88.04707905531095 C 0.0 **** -0.24
11982 H 88.3312990863997 38.355399040559185 89.01971947984686 H 0.0 **** 0.06
11983 H 88.45295978616866 36.96950429158636 87.90880165846389 H 0.0 **** 0.06
11984 H 88.39533355917371 38.626822534566124 87.2616939426604 H 0.0 **** 0.06
11985 H 86.9432742398723 37.90853847591776 87.997814541559 H 0.0 **** 0.06
11986 C 81.9034205155636 20.328527955310392 50.29990825712495 C 0.0 **** -0.24
11987 H 81.16893644210171 20.999129353812293 50.746697822329246 H 0.0 **** 0.06
11988 H 81.57845369067428 20.050009656603493 49.29739786260707 H 0.0 **** 0.06
11989 H 81.9982049616246 19.432845000065583 50.91295055323578 H 0.0 **** 0.06
11990 H 82.86828864980737 20.833723681246965 50.241944376185145 H 0.0 **** 0.06
11991 C 2.39753565917551 15.61932587287589 56.49006638454971 C 0.0 **** -0.24
11992 H 3.2132152880303924 15.213525573159302 55.892201193040414 H 0.0 **** 0.06
11993 H 2.264667306367878 15.009509670963752 57.38356968781749 H 0.0 **** 0.06
11994 H 1.4782857833848801 15.61204355037981 55.904032577922315 H 0.0 **** 0.06
11995 H 2.6359076414856286 16.643336407308936 56.78029953007104 H 0.0 **** 0.06
11996 C 34.19649427429154 61.85777665853815 102.06735991919402 C 0.0 **** -0.24
11997 H 35.02902092968451 61.1587387668665 102.15263249949916 H 0.0 **** 0.06
11998 H 34.521582002599295 62.84869121823085 102.38384728003143 H 0.0 **** 0.06
11999 H 33.375129360865095 61.523792499672375 102.7012283743899 H 0.0 **** 0.06
12000 H 33.861073261306714 61.898164964899756 101.03056603862927 H 0.0 **** 0.06
12001 C 17.86273887660343 64.47321957772613 6.391306367892341 C 0.0 **** -0.24
12002 H 17.791634195736435 64.38045026417535 5.30795882543714 H 0.0 **** 0.06
12003 H 17.458906208612945 65.43827820993386 6.700181873257577 H 0.0 **** 0.06
12004 H 18.906854105018397 64.40111835172286 6.69457312235177 H 0.0 **** 0.06
12005 H 17.29115477764202 63.672585752203815 6.86240312084351 H 0.0 **** 0.06
12006 C 14.297769259077796 47.22430043462953 111.79472555936388 C 0.0 **** -0.24
12007 H 15.207980175551342 46.7320281276229 111.45237044556148 H 0.0 **** 0.06
12008 H 14.015974841032516 46.82560174749972 112.76984416408601 H 0.0 **** 0.06
12009 H 13.494925773015837 47.041055108211054 111.08160258961011 H 0.0 **** 0.06
12010 H 14.473669506458123 48.29692347907687 111.87715663164583 H 0.0 **** 0.06
12011 C 74.40519276127716 98.22222312330476 90.22428268593 C 0.0 **** -0.24
12012 H 74.4723035989307 97.67316463301 91.16329432180663 H 0.0 **** 0.06
12013 H 75.1039823186569 99.0581493143776 90.24132616941432 H 0.0 **** 0.06
12014 H 73.38998255665948 98.59953954627895 90.09699722879353 H 0.0 **** 0.06
12015 H 74.65251066170657 97.55801570799863 89.39652892019271 H 0.0 **** 0.06
12016 C 34.35230744647609 64.64779316866151 11.209569072534975 C 0.0 **** -0.24
12017 H 35.390765469353965 64.69424414217559 10.881422436669553 H 0.0 **** 0.06
12018 H 34.29814475164352 64.86804824720105 12.275910524864713 H 0.0 **** 0.06
12019 H 33.95759524045357 63.64869868586155 11.024602968101789 H 0.0 **** 0.06
12020 H 33.76381381630402 65.37887972090434 10.65668429947877 H 0.0 **** 0.06
12021 C 21.33901297717938 71.08667943724271 102.99145012915025 C 0.0 **** -0.24
12022 H 22.261783870635465 71.56969578755925 102.66922492840828 H 0.0 **** 0.06
12023 H 21.578624332719194 70.1593879877681 103.51289714892417 H 0.0 **** 0.06
12024 H 20.722020386950305 70.86576534552532 102.12053448129899 H 0.0 **** 0.06
12025 H 20.79553918430908 71.75183849423846 103.66257056280409 H 0.0 **** 0.06
12026 C 106.26861898670649 33.13983320539098 41.80150549448507 C 0.0 **** -0.24
12027 H 107.25756302427169 33.3612497898818 41.4002432999913 H 0.0 **** 0.06
12028 H 106.21902795605206 33.459814333489 42.842449196384166 H 0.0 **** 0.06
12029 H 106.0847961890664 32.06727243635051 41.7422643184463 H 0.0 **** 0.06
12030 H 105.51355331049041 33.67013803474624 41.220846729279856 H 0.0 **** 0.06
12031 C 105.14875552381028 87.38612870822811 2.703383074475113 C 0.0 **** -0.24
12032 H 104.70175683643984 87.34501076468189 3.696224150856466 H 0.0 **** 0.06
12033 H 104.48138394223122 87.91950393309395 2.025660366031559 H 0.0 **** 0.06
12034 H 105.30810292481726 86.37304817096583 2.3344844717289845 H 0.0 **** 0.06
12035 H 106.10505939393033 87.90755022729053 2.757128227086156 H 0.0 **** 0.06
12036 C 115.42541327497884 31.61293109947082 55.172482590108814 C 0.0 **** -0.24
12037 H 114.43011149756154 31.673599026157618 55.612233332799036 H 0.0 **** 0.06
12038 H 115.53775578495403 30.658061337689418 54.65822010080012 H 0.0 **** 0.06
12039 H 116.17583813879249 31.692698553711587 55.95862991023375 H 0.0 **** 0.06
12040 H 115.55698034024682 32.427472314403 54.45982087866088 H 0.0 **** 0.06
12041 C 19.436209029235442 111.88200602824577 63.73555596821205 C 0.0 **** -0.24
12042 H 19.766622747480255 111.06724523512557 63.09254702951744 H 0.0 **** 0.06
12043 H 18.35918150467755 112.01406027071867 63.63132370541383 H 0.0 **** 0.06
12044 H 19.945775622541362 112.8010822793782 63.44734136474083 H 0.0 **** 0.06
12045 H 19.674590321898464 111.64554368176142 64.77249901236007 H 0.0 **** 0.06
12046 C 19.22786258397963 108.87709438739816 95.84848938090727 C 0.0 **** -0.24
12047 H 18.596108849912298 109.74712399903865 96.02694287193697 H 0.0 **** 0.06
12048 H 18.601664334415233 108.00297459021752 95.67174872445844 H 0.0 **** 0.06
12049 H 19.858349670312236 108.70239996393121 96.7207501803608 H 0.0 **** 0.06
12050 H 19.85688350145753 109.05675582454771 94.97619214834981 H 0.0 **** 0.06
12051 C 105.63374720091187 25.089229563480956 88.36683619812504 C 0.0 **** -0.24
12052 H 104.97922200889641 24.57207075013332 87.66637391700212 H 0.0 **** 0.06
12053 H 106.26021135818789 25.797205972884797 87.8243732777052 H 0.0 **** 0.06
12054 H 106.26581159681024 24.362277694230215 88.8768671228031 H 0.0 **** 0.06
12055 H 105.03080732718976 25.624601778177066 89.10086556770236 H 0.0 **** 0.06
12056 C 62.06429214662197 110.13871244355461 43.391677577088984 C 0.0 **** -0.24
12057 H 62.845938382301675 109.98745278442901 42.647478263267686 H 0.0 **** 0.06
12058 H 61.61811357648232 111.12361331504502 43.25501045004782 H 0.0 **** 0.06
12059 H 62.49645416927249 110.07067074500348 44.39070528287803 H 0.0 **** 0.06
12060 H 61.29741423854866 109.37322683132604 43.274165859030205 H 0.0 **** 0.06
12061 C 42.20263532776417 45.83701307034039 105.91008318358098 C 0.0 **** -0.24
12062 H 42.044274625056374 46.59341928977578 106.6785559973705 H 0.0 **** 0.06
12063 H 42.621862429245084 46.30701837881419 105.01910071900124 H 0.0 **** 0.06
12064 H 41.25065715459911 45.36811014749509 105.66038818172231 H 0.0 **** 0.06
12065 H 42.894448325219685 45.08104609640634 106.28265092551064 H 0.0 **** 0.06
12066 C 100.7322836399781 22.216395288633798 44.71125922209603 C 0.0 **** -0.24
12067 H 100.2253272626844 22.902028812554676 44.03154095218815 H 0.0 **** 0.06
12068 H 101.7124961094394 22.61828250349654 44.96757180874715 H 0.0 **** 0.06
12069 H 100.85109027716894 21.24688043968749 44.228227272037145 H 0.0 **** 0.06
12070 H 100.13873816555392 22.100023891550837 45.618057674971624 H 0.0 **** 0.06
12071 C 6.4740927758394236 44.45336920078893 57.65938765767795 C 0.0 **** -0.24
12072 H 6.780783932841501 44.70312963718462 58.67430348203461 H 0.0 **** 0.06
12073 H 5.486196820954845 44.87152231357817 57.4648817398328 H 0.0 **** 0.06
12074 H 6.440028179031515 43.36947854340019 57.546044579621444 H 0.0 **** 0.06
12075 H 7.1908696451215945 44.86991357653508 56.95047527342832 H 0.0 **** 0.06
12076 C 71.40598992213904 109.539632297577 20.72740172344018 C 0.0 **** -0.24
12077 H 70.44333016820045 109.03586921526558 20.81124017825934 H 0.0 **** 0.06
12078 H 71.31839228789414 110.37760394099422 20.034610813568975 H 0.0 **** 0.06
12079 H 72.15270398999019 108.83735075414235 20.357894410522704 H 0.0 **** 0.06
12080 H 71.70868261032496 109.90928306787406 21.707531029782388 H 0.0 **** 0.06
12081 C 38.092159598046216 58.538289948695535 5.907781410394989 C 0.0 **** -0.24
12082 H 37.529145778122185 59.37872758667535 6.313502953454275 H 0.0 **** 0.06
12083 H 38.975555473230315 58.91082872515486 5.386432467805577 H 0.0 **** 0.06
12084 H 37.46502626540583 57.984119511518514 5.208483940580209 H 0.0 **** 0.06
12085 H 38.39936323230977 57.8803251820309 6.720684392445548 H 0.0 **** 0.06
12086 C 107.83355748986273 27.88848263868134 52.843771316875234 C 0.0 **** -0.24
12087 H 107.71406518246553 28.850597917586555 52.34497398225352 H 0.0 **** 0.06
12088 H 107.49591183825856 27.96935756658992 53.87692262052667 H 0.0 **** 0.06
12089 H 108.88410595193966 27.597701592550635 52.826184354119164 H 0.0 **** 0.06
12090 H 107.23907110591651 27.13494834253794 52.32524736875189 H 0.0 **** 0.06
12091 C 83.12309997621014 5.591908277073983 91.0797585475585 C 0.0 **** -0.24
12092 H 83.31230029135762 6.601026255072952 91.4459540131688 H 0.0 **** 0.06
12093 H 82.11540184350145 5.538621171609876 90.66605817190228 H 0.0 **** 0.06
12094 H 83.21549619822753 4.883984450165443 91.90292360500104 H 0.0 **** 0.06
12095 H 83.84797029225541 5.344662449954413 90.30388193542393 H 0.0 **** 0.06
12096 C 3.4257961252818063 86.567915416946 20.920876198912964 C 0.0 **** -0.24
12097 H 3.0685454681192823 87.49123103878236 21.375824699905507 H 0.0 **** 0.06
12098 H 3.999740103500642 85.99998172455395 21.652833557028558 H 0.0 **** 0.06
12099 H 4.06119179886889 86.80671906799313 20.067411389607656 H 0.0 **** 0.06
12100 H 2.575316786081544 85.97504310055189 20.586137191073362 H 0.0 **** 0.06
12101 C 110.77300060581281 17.0371073385401 52.97333557979246 C 0.0 **** -0.24
12102 H 111.51771739903947 16.395480536716082 53.443529016391835 H 0.0 **** 0.06
12103 H 110.80438814295364 16.897210409703025 51.89203509717274 H 0.0 **** 0.06
12104 H 110.98811244849641 18.078944542260416 53.21148494338868 H 0.0 **** 0.06
12105 H 109.78276303903966 16.775430181846083 53.3448157687491 H 0.0 **** 0.06
12106 C 114.55588446173189 14.664543329373515 60.28532121450717 C 0.0 **** -0.24
12107 H 113.92863248309203 15.532446691766268 60.08203897323869 H 0.0 **** 0.06
12108 H 113.96366162194283 13.754418818963401 60.175846928388516 H 0.0 **** 0.06
12109 H 114.94319262010353 14.725790006777387 61.30310522384617 H 0.0 **** 0.06
12110 H 115.38744971382329 14.64433161743969 59.58077476844141 H 0.0 **** 0.06
12111 C 2.1573988184975406 68.3742795751815 50.13528591972016 C 0.0 **** -0.24
12112 H 2.9800282832235894 69.0750437753459 49.990633576824905 H 0.0 **** 0.06
12113 H 1.342045165049285 68.87577708252272 50.65906238224005 H 0.0 **** 0.06
12114 H 2.5012528446653732 67.52578218310768 50.72638533554789 H 0.0 **** 0.06
12115 H 1.805204726975603 68.02319547657657 49.16588962272897 H 0.0 **** 0.06
12116 C 24.705585400669435 21.97854894247653 32.13346756255381 C 0.0 **** -0.24
12117 H 24.910803093297403 21.000321052523354 31.698736777691643 H 0.0 **** 0.06
12118 H 25.124946955079764 22.75573316456372 31.4943090889809 H 0.0 **** 0.06
12119 H 25.158140207193327 22.037425630188505 33.123239575431015 H 0.0 **** 0.06
12120 H 23.6285626525773 22.119322371344115 32.21779868191759 H 0.0 **** 0.06
12121 C 11.724884230433162 28.813315670495598 9.611240742087595 C 0.0 **** -0.24
12122 H 12.771808207668983 28.671159523260954 9.875979630323204 H 0.0 **** 0.06
12123 H 11.659349625324978 29.290496909244695 8.632824002923456 H 0.0 **** 0.06
12124 H 11.24353699727098 29.445801649557396 10.357707313112112 H 0.0 **** 0.06
12125 H 11.224476524197371 27.845367086569276 9.577630437735738 H 0.0 **** 0.06
12126 C 102.57885554538004 70.00524845199584 36.32754173830244 C 0.0 **** -0.24
12127 H 103.21045694832284 70.4161769755965 35.54007594924178 H 0.0 **** 0.06
12128 H 102.64818942325789 70.63524108534011 37.21501688199959 H 0.0 **** 0.06
12129 H 102.91258464423797 68.99654754253316 36.57058559993942 H 0.0 **** 0.06
12130 H 101.54505113162165 69.97353849039746 35.984499701584184 H 0.0 **** 0.06
12131 C 57.09829474475288 73.05586790883956 29.154096673897726 C 0.0 **** -0.24
12132 H 56.105990128690905 72.64067460980593 28.983140735542037 H 0.0 **** 0.06
12133 H 57.00999423118526 73.99571201074895 29.701553709682003 H 0.0 **** 0.06
12134 H 57.585547364070464 73.23806726299071 28.196247393117687 H 0.0 **** 0.06
12135 H 57.692582896737804 72.35103609995909 29.73567098922277 H 0.0 **** 0.06
12136 C 78.17845576333298 100.10355092282961 59.31706056632202 C 0.0 **** -0.24
12137 H 78.96022539077586 100.8118808000603 59.040785223683365 H 0.0 **** 0.06
12138 H 78.27233468841513 99.20362905251969 58.70987336594815 H 0.0 **** 0.06
12139 H 77.2020584645233 100.55755553836124 59.14762888785244 H 0.0 **** 0.06
12140 H 78.28020028892809 99.8437049442966 60.37114696438673 H 0.0 **** 0.06
12141 C 66.56083565243793 52.08529308898997 35.744124501592125 C 0.0 **** -0.24
12142 H 66.97357139695356 51.627185322536405 34.845402946356096 H 0.0 **** 0.06
12143 H 66.28541504224413 51.306614653195595 36.45531107306744 H 0.0 **** 0.06
12144 H 65.67739465441343 52.667674352420164 35.48153916229349 H 0.0 **** 0.06
12145 H 67.30739088231797 52.74097377641695 36.19219825228043 H 0.0 **** 0.06
12146 C 66.44221013830636 83.71869998001725 100.96317689158897 C 0.0 **** -0.24
12147 H 65.60538151404245 83.17961387844556 101.40724782459898 H 0.0 **** 0.06
12148 H 66.09700193580221 84.6845536902454 100.59296623476459 H 0.0 **** 0.06
12149 H 66.85177272859832 83.13714714918657 100.13735987541108 H 0.0 **** 0.06
12150 H 67.21509167933681 83.87370958286726 101.71707887925496 H 0.0 **** 0.06
12151 C 112.22317089519902 70.70203346765354 63.371084080270776 C 0.0 **** -0.24
12152 H 112.37727445195064 71.40667542535343 62.553211331427065 H 0.0 **** 0.06
12153 H 112.53256868794784 71.16260346425685 64.31001769211554 H 0.0 **** 0.06
12154 H 112.8153971299064 69.80443296544692 63.19326567038749 H 0.0 **** 0.06
12155 H 111.16734380509996 70.43625122158852 63.42703892168316 H 0.0 **** 0.06
12156 C 12.118374660530947 90.1578748717805 22.07280825943252 C 0.0 **** -0.24
12157 H 12.0240170574005 89.07283262247614 22.103383907075198 H 0.0 **** 0.06
12158 H 12.230048058951695 90.48361427173077 21.03771262576842 H 0.0 **** 0.06
12159 H 12.993842028152017 90.46301795489572 22.646112332249174 H 0.0 **** 0.06
12160 H 11.22542390976804 90.61188421358096 22.501799408143597 H 0.0 **** 0.06
12161 C 1.8987736915823916 94.55948360628949 44.36604463472791 C 0.0 **** -0.24
12162 H 0.8301757695597587 94.6173761142496 44.16062587714282 H 0.0 **** 0.06
12163 H 2.3129348408910744 93.67205871643927 43.88622941965478 H 0.0 **** 0.06
12164 H 2.0584769049715135 94.49803830020286 45.44267564923948 H 0.0 **** 0.06
12165 H 2.393270196547988 95.44842902601783 43.97599445563599 H 0.0 **** 0.06
12166 C 69.84111711658966 90.36511296509872 57.89658079147544 C 0.0 **** -0.24
12167 H 69.9881786260492 89.9472020614862 56.90050329732603 H 0.0 **** 0.06
12168 H 70.37217156751296 91.31399492017229 57.975003980081176 H 0.0 **** 0.06
12169 H 70.22484365343286 89.66970805931192 58.642806563668806 H 0.0 **** 0.06
12170 H 68.77645760656586 90.52979909997 58.067008667105135 H 0.0 **** 0.06
12171 C 18.8138545580415 17.591953881355344 24.49707054950194 C 0.0 **** -0.24
12172 H 18.599078694871025 17.322330058151415 25.531751835035443 H 0.0 **** 0.06
12173 H 17.90107762755764 17.518360699577897 23.906029711065706 H 0.0 **** 0.06
12174 H 19.564605748540544 16.912551713428506 24.094668693517825 H 0.0 **** 0.06
12175 H 19.19118736008096 18.613559149055675 24.45894490916301 H 0.0 **** 0.06
12176 C 26.064551592125724 32.75921551513324 40.898268053975656 C 0.0 **** -0.24
12177 H 27.018899526248816 32.38400726783861 40.52885128004385 H 0.0 **** 0.06
12178 H 26.239570589057223 33.445789917262125 41.726215438842274 H 0.0 **** 0.06
12179 H 25.453854819372282 31.92364423144374 41.240799902907156 H 0.0 **** 0.06
12180 H 25.545593156959285 33.28353467428592 40.095229708044826 H 0.0 **** 0.06
12181 C 55.268297553884395 73.55863159571331 67.17734028986331 C 0.0 **** -0.24
12182 H 56.23639148160794 73.41599125834225 67.65720155114394 H 0.0 **** 0.06
12183 H 54.48142255332044 73.16832566342535 67.82423679419855 H 0.0 **** 0.06
12184 H 55.253310425322525 73.02809857336663 66.22547052841588 H 0.0 **** 0.06
12185 H 55.10277372167326 74.62168931137109 67.00360170862746 H 0.0 **** 0.06
12186 C 55.53914916205932 69.50845833114028 56.988285852251956 C 0.0 **** -0.24
12187 H 54.67202879928021 69.65396380867179 56.3430196472931 H 0.0 **** 0.06
12188 H 55.88945472049912 70.47613455488698 57.347835186156026 H 0.0 **** 0.06
12189 H 56.33380094907082 69.02024195145879 56.42469536968037 H 0.0 **** 0.06
12190 H 55.25815501862999 68.88482076199318 57.83707348866216 H 0.0 **** 0.06
12191 C 54.43206136612426 24.72503792860806 89.22738826701644 C 0.0 **** -0.24
12192 H 53.95879003577036 25.49915414791326 88.623354085909 H 0.0 **** 0.06
12193 H 54.186447360114556 24.88317890654369 90.27688103929898 H 0.0 **** 0.06
12194 H 55.512993216784594 24.772457250410554 89.0949204835224 H 0.0 **** 0.06
12195 H 54.069666997712915 23.746252126294422 88.91237609556973 H 0.0 **** 0.06
12196 C 84.90154332957854 67.04756213760308 83.98282435386855 C 0.0 **** -0.24
12197 H 85.30451502840515 67.99494992147669 84.33953867702672 H 0.0 **** 0.06
12198 H 85.35695912027919 66.22698901643568 84.53751272969669 H 0.0 **** 0.06
12199 H 85.12436551870451 66.93498555098634 82.92116158832818 H 0.0 **** 0.06
12200 H 83.82240280574572 67.0332390959903 84.13091372891117 H 0.0 **** 0.06
12201 C 57.966067873185864 73.87387793822313 109.10395071698603 C 0.0 **** -0.24
12202 H 57.026282272817866 73.81057463364385 108.5548926917007 H 0.0 **** 0.06
12203 H 57.889714908146345 73.28996885212388 110.02187143363687 H 0.0 **** 0.06
12204 H 58.172848871275846 74.91563174419608 109.35109166675488 H 0.0 **** 0.06
12205 H 58.774558518118454 73.47929722365626 108.48745012595948 H 0.0 **** 0.06
12206 C 109.92401064082848 86.87251573673456 89.13423937880458 C 0.0 **** -0.24
12207 H 110.44829336534707 87.23956958356806 90.01690641589863 H 0.0 **** 0.06
12208 H 109.14805976673343 87.58480032922256 88.85070989829836 H 0.0 **** 0.06
12209 H 109.46832631480837 85.9083928963426 89.3571291202926 H 0.0 **** 0.06
12210 H 110.63109067669888 86.75947505286587 88.31265458645993 H 0.0 **** 0.06
12211 C 66.29603620216415 63.431625315691974 4.369113618115605 C 0.0 **** -0.24
12212 H 65.25211109999853 63.68384374895669 4.183317500499243 H 0.0 **** 0.06
12213 H 66.86590910597207 63.54480756496406 3.4466936292318593 H 0.0 **** 0.06
12214 H 66.36364523521422 62.399738624457655 4.714090220084188 H 0.0 **** 0.06
12215 H 66.70038796748429 64.09677459835592 5.130996776819913 H 0.0 **** 0.06
12216 C 30.754595404159453 32.58613575903236 22.520450986513183 C 0.0 **** -0.24
12217 H 30.84563072342238 33.5433202443442 23.033462070111 H 0.0 **** 0.06
12218 H 30.46720432139236 32.75634307095722 21.483149791015364 H 0.0 **** 0.06
12219 H 29.99455291681069 31.980457020446003 23.014149940216015 H 0.0 **** 0.06
12220 H 31.71170268439829 32.064083490045704 22.552217869923624 H 0.0 **** 0.06
12221 C 82.42822411859765 63.98332574507066 77.25644912530333 C 0.0 **** -0.24
12222 H 83.07894040045795 64.8577626738242 77.27750541592764 H 0.0 **** 0.06
12223 H 81.76538725334012 64.04539311453567 76.3930396450678 H 0.0 **** 0.06
12224 H 81.83356844239287 63.95069993694864 78.16949411978158 H 0.0 **** 0.06
12225 H 83.03477350829726 63.08081964138813 77.1855019742465 H 0.0 **** 0.06
12226 C 85.1862493904967 83.40906506577161 1.880187845436092 C 0.0 **** -0.24
12227 H 84.84258059936616 82.42195885448612 1.5707770152180096 H 0.0 **** 0.06
12228 H 86.16663389821912 83.32252693415612 2.348412493419154 H 0.0 **** 0.06
12229 H 84.47821846527637 83.83314311914842 2.5927227727142004 H 0.0 **** 0.06
12230 H 85.25544631274533 84.05933828218306 1.0087233098979898 H 0.0 **** 0.06
12231 C 25.304590182628942 54.68598204499915 104.47425330159996 C 0.0 **** -0.24
12232 H 24.89582306416395 54.95674407755439 103.4997665435676 H 0.0 **** 0.06
12233 H 24.6011461077766 54.974807766874164 105.25576091754345 H 0.0 **** 0.06
12234 H 26.251233340537993 55.20519806593461 104.6265276169186 H 0.0 **** 0.06
12235 H 25.469382864597122 53.60904726543015 104.51197376304327 H 0.0 **** 0.06
12236 C 63.160620809332386 15.008374989438607 96.63636158703969 C 0.0 **** -0.24
12237 H 63.55003653420755 14.29572155665113 97.36326215225333 H 0.0 **** 0.06
12238 H 63.75057760298847 15.924822563277218 96.67517999087411 H 0.0 **** 0.06
12239 H 62.12059308420885 15.23548072866538 96.87117064774105 H 0.0 **** 0.06
12240 H 63.22267990283416 14.578048028841039 95.63747707633024 H 0.0 **** 0.06
12241 C 54.40643856392518 41.70167012765475 101.2706548038961 C 0.0 **** -0.24
12242 H 54.494148951289475 41.47271230964983 102.3332827914374 H 0.0 **** 0.06
12243 H 54.528012849271875 42.774025334212425 101.12006951669377 H 0.0 **** 0.06
12244 H 53.423867620475306 41.392178058684884 100.91373605156673 H 0.0 **** 0.06
12245 H 55.17886569943312 41.165926526732235 100.71867464676231 H 0.0 **** 0.06
12246 C 111.1031587247854 33.75520591169883 69.3445107731088 C 0.0 **** -0.24
12247 H 112.00772370518064 33.676379268380764 69.9479571672833 H 0.0 **** 0.06
12248 H 111.3390035196415 34.2415631702917 68.39818641464026 H 0.0 **** 0.06
12249 H 110.35953655836744 34.34496056457811 69.88181289309472 H 0.0 **** 0.06
12250 H 110.70612554061381 32.758086815557064 69.15251816587704 H 0.0 **** 0.06
12251 C 35.678676939213915 90.41590253488909 30.90990973007945 C 0.0 **** -0.24
12252 H 36.16509748233392 90.30415924815739 29.940733546252346 H 0.0 **** 0.06
12253 H 36.43433610359716 90.41377594232955 31.696611564295182 H 0.0 **** 0.06
12254 H 34.9875747947774 89.58794773474978 31.066749197473968 H 0.0 **** 0.06
12255 H 35.12987422049957 91.35745385477023 30.935102326359583 H 0.0 **** 0.06
12256 C 82.46356409184872 104.86585823971205 85.79297880350165 C 0.0 **** -0.24
12257 H 83.00346232704055 104.49684854828968 84.9207932017834 H 0.0 **** 0.06
12258 H 81.4044193582138 104.62860387704524 85.6925160253079 H 0.0 **** 0.06
12259 H 82.58834691037649 105.94585914449522 85.86767302808892 H 0.0 **** 0.06
12260 H 82.85886921001182 104.39132888575762 86.69174784308643 H 0.0 **** 0.06
12261 C 96.4288071185681 103.48798774449992 36.841658437459884 C 0.0 **** -0.24
12262 H 97.30172637071033 103.07730701274511 37.34925994739936 H 0.0 **** 0.06
12263 H 96.60203184289918 103.48854318303734 35.765055953537825 H 0.0 **** 0.06
12264 H 96.25705513491991 104.50954897987322 37.18197874290371 H 0.0 **** 0.06
12265 H 95.55470892189692 102.87798434616093 37.06941084085199 H 0.0 **** 0.06
12266 C 111.78496159844144 1.9665837500923544 17.951429848956764 C 0.0 **** -0.24
12267 H 111.3828894382994 2.718898747072558 17.272588844246457 H 0.0 **** 0.06
12268 H 112.12149198403924 2.4481189062600492 18.868831113365616 H 0.0 **** 0.06
12269 H 112.62651381410996 1.4620655397769156 17.474899357466157 H 0.0 **** 0.06
12270 H 111.00984360781325 1.236964560933643 18.18577767348833 H 0.0 **** 0.06
12271 C 89.99051692730859 60.22792151183205 48.66624510214717 C 0.0 **** -0.24
12272 H 91.01736187393314 60.18591806258411 49.02844682537108 H 0.0 **** 0.06
12273 H 89.83431299876588 61.16103442230991 48.125375832011855 H 0.0 **** 0.06
12274 H 89.3048560726298 60.178201114138886 49.51232610312189 H 0.0 **** 0.06
12275 H 89.80640434530909 59.38541558693544 47.998837917952756 H 0.0 **** 0.06
12276 C 59.61795459960513 33.093876470890706 65.66576420065076 C 0.0 **** -0.24
12277 H 59.22716544567959 33.779654539728625 64.91356257601132 H 0.0 **** 0.06
12278 H 59.20516878071953 33.35064508537124 66.64141819598638 H 0.0 **** 0.06
12279 H 60.704925772701586 33.170935002660826 65.69848484793908 H 0.0 **** 0.06
12280 H 59.33350536101864 32.0736300746328 65.40772562985433 H 0.0 **** 0.06
12281 C 41.5148245720564 104.43723843609962 19.349743367306814 C 0.0 **** -0.24
12282 H 42.285920811218375 104.97237993027167 19.90452005537267 H 0.0 **** 0.06
12283 H 41.90046934810485 104.16051943667779 18.368228874264815 H 0.0 **** 0.06
12284 H 40.64265309950012 105.07896342638503 19.229802325078282 H 0.0 **** 0.06
12285 H 41.23236595163243 103.53755363586501 19.89699686254525 H 0.0 **** 0.06
12286 C 53.30340045510235 105.35633112629728 78.91357487389297 C 0.0 **** -0.24
12287 H 52.87102832831824 106.35266280023973 78.99611218639762 H 0.0 **** 0.06
12288 H 53.81639243777414 105.10498102432496 79.84288237115885 H 0.0 **** 0.06
12289 H 54.01538939042636 105.33741939261927 78.08856150567368 H 0.0 **** 0.06
12290 H 52.51155528863701 104.63085657961778 78.72777426755766 H 0.0 **** 0.06
12291 C 61.39630683694839 37.437484870957576 61.31913856469987 C 0.0 **** -0.24
12292 H 60.79979250190737 36.55792386564702 61.07793735374963 H 0.0 **** 0.06
12293 H 61.04519024705716 38.28696709063243 60.73374208845536 H 0.0 **** 0.06
12294 H 62.44290880798932 37.24188780687299 61.08636388503311 H 0.0 **** 0.06
12295 H 61.296441667190244 37.66249652435946 62.381635035384676 H 0.0 **** 0.06
12296 C 64.15780127744685 113.98835086593371 111.04671909067395 C 0.0 **** -0.24
12297 H 63.51965656026068 113.76337029675238 110.19252473731444 H 0.0 **** 0.06
12298 H 64.53532068721955 115.00741351487058 110.96010845752404 H 0.0 **** 0.06
12299 H 64.99566993897224 113.29146142671154 111.06707050971981 H 0.0 **** 0.06
12300 H 63.581295912857435 113.89160813962059 111.96605325438607 H 0.0 **** 0.06
12301 C 96.86712202647038 15.629167429116308 52.539022858341255 C 0.0 **** -0.24
12302 H 97.70412869139895 15.756705027201463 53.22593115153693 H 0.0 **** 0.06
12303 H 97.23113864677163 15.662226051598054 51.51182958093375 H 0.0 **** 0.06
12304 H 96.14429170047126 16.429345770493825 52.69471757135895 H 0.0 **** 0.06
12305 H 96.38948762273733 14.666197665464267 52.72454557444944 H 0.0 **** 0.06
12306 C 5.380619695291273 14.965715797520481 88.02342123697258 C 0.0 **** -0.24
12307 H 4.446132848857076 15.52734935925713 88.01593262779517 H 0.0 **** 0.06
12308 H 5.8810824129379995 15.079864569740089 87.06168888861964 H 0.0 **** 0.06
12309 H 5.16782663522676 13.910939691416594 88.19989926868993 H 0.0 **** 0.06
12310 H 6.025895827183618 15.344105596861862 88.81667458853684 H 0.0 **** 0.06
12311 C 59.534621090259265 14.995074280300798 99.68209784851817 C 0.0 **** -0.24
12312 H 58.71232886233528 15.699379054185101 99.80937809248965 H 0.0 **** 0.06
12313 H 60.20221673533237 15.05754986296742 100.54151557370926 H 0.0 **** 0.06
12314 H 60.086278482160566 15.240909226685716 98.77418688254787 H 0.0 **** 0.06
12315 H 59.136677913243716 13.98289391344494 99.6023911171664 H 0.0 **** 0.06
12316 C 97.5811015857565 58.39094130879746 56.656797153594106 C 0.0 **** -0.24
12317 H 97.46179010613497 57.7961385303933 55.75110382651163 H 0.0 **** 0.06
12318 H 96.71631144482035 58.24475734131794 57.3045087123537 H 0.0 **** 0.06
12319 H 97.66122192748554 59.44553335168475 56.39061038311289 H 0.0 **** 0.06
12320 H 98.48402552426063 58.07905268584353 57.17999855647411 H 0.0 **** 0.06
12321 C 67.06921191694622 61.099355715187755 75.78776980763959 C 0.0 **** -0.24
12322 H 67.46689400854785 61.61167518628088 74.91181052283011 H 0.0 **** 0.06
12323 H 66.85289341455984 61.82950414684478 76.56804833217109 H 0.0 **** 0.06
12324 H 67.80398193743468 60.38258709080253 76.15377348571755 H 0.0 **** 0.06
12325 H 66.15347314803796 60.574099437987854 75.51664196203978 H 0.0 **** 0.06
12326 C 59.3161107589058 30.09098342152444 35.29893641169471 C 0.0 **** -0.24
12327 H 59.57737868782606 31.119510060037925 35.04981195765967 H 0.0 **** 0.06
12328 H 58.328302341819374 29.860655139668296 34.90069987554102 H 0.0 **** 0.06
12329 H 59.30891725987208 29.97054013304202 36.38206734170288 H 0.0 **** 0.06
12330 H 60.05097018395869 29.41353542266944 34.8623669631686 H 0.0 **** 0.06
12331 C 81.31146083812229 47.91730742230905 101.33772896624433 C 0.0 **** -0.24
12332 H 80.94162958750934 48.934295948797455 101.47611346527998 H 0.0 **** 0.06
12333 H 82.06941665727567 47.909790734218774 100.55435456774126 H 0.0 **** 0.06
12334 H 80.48436011594953 47.268123118627386 101.0494337489896 H 0.0 **** 0.06
12335 H 81.74688799326574 47.55967252610682 102.26947479880263 H 0.0 **** 0.06
12336 C 30.52539289242435 70.24508628876322 20.888868828778328 C 0.0 **** -0.24
12337 H 30.78910676342683 69.31436816762641 21.390513822183067 H 0.0 **** 0.06
12338 H 29.802854137659708 70.03999908893388 20.098537258474693 H 0.0 **** 0.06
12339 H 31.42058851493482 70.6908056040138 20.456620076598796 H 0.0 **** 0.06
12340 H 30.088087318777326 70.93569359869389 21.61072851802834 H 0.0 **** 0.06
12341 C 86.51950547223748 58.52072237597225 50.06773613859166 C 0.0 **** -0.24
12342 H 87.43638429116459 59.0998427905783 50.18197623598413 H 0.0 **** 0.06
12343 H 86.30580437645779 57.993457534366776 50.99863447798753 H 0.0 **** 0.06
12344 H 86.64455472590623 57.798224831084745 49.261548867161885 H 0.0 **** 0.06
12345 H 85.69387738631019 59.19120086198519 49.83147195131568 H 0.0 **** 0.06
12346 C 89.23945124741081 30.422013432232987 85.2284555167553 C 0.0 **** -0.24
12347 H 88.73537013111596 31.37735393967248 85.07988650425398 H 0.0 **** 0.06
12348 H 89.24414700615242 30.17460934058937 86.28996770551117 H 0.0 **** 0.06
12349 H 90.26493564131857 30.49283126170343 84.86683760039321 H 0.0 **** 0.06
12350 H 88.71157967234538 29.643890463841828 84.67592199932633 H 0.0 **** 0.06
12351 C 70.61919677981001 95.47365913495253 64.0303632530181 C 0.0 **** -0.24
12352 H 70.91703335134602 96.52161521665619 63.98312498930878 H 0.0 **** 0.06
12353 H 69.53237855139324 95.40291785922909 63.993529265700005 H 0.0 **** 0.06
12354 H 70.98220137706801 95.03506342098274 64.96037103928018 H 0.0 **** 0.06
12355 H 71.04807947484454 94.93736225346129 63.18402098217257 H 0.0 **** 0.06
12356 C 36.27692725058148 44.01111562632025 88.28743386132186 C 0.0 **** -0.24
12357 H 36.72461297493927 43.31925946823668 87.5729168200906 H 0.0 **** 0.06
12358 H 35.89637175277751 44.88416080761422 87.75652837485748 H 0.0 **** 0.06
12359 H 37.03043781586252 44.32496109848441 89.01010241434537 H 0.0 **** 0.06
12360 H 35.457418137262046 43.515727567619365 88.80761980929802 H 0.0 **** 0.06
12361 C 32.68125621069553 103.90939755674935 10.685537562819917 C 0.0 **** -0.24
12362 H 32.267018478734514 103.41847553495393 11.566888065819825 H 0.0 **** 0.06
12363 H 33.45469514704684 103.2773136780192 10.248684984867637 H 0.0 **** 0.06
12364 H 33.113102750484316 104.86748469732163 10.973835203546784 H 0.0 **** 0.06
12365 H 31.889372176984963 104.07227149180085 9.954771734316765 H 0.0 **** 0.06
12366 C 16.03100683472058 51.57643531940545 101.5065247132994 C 0.0 **** -0.24
12367 H 15.966358939334338 52.48763786115501 100.90998412615357 H 0.0 **** 0.06
12368 H 15.125033390668772 51.469516146691774 102.10390937301386 H 0.0 **** 0.06
12369 H 16.896755908496374 51.63480861712935 102.16503817225401 H 0.0 **** 0.06
12370 H 16.133763648701102 50.71701160827615 100.84450745638236 H 0.0 **** 0.06
12371 C 26.60452381806197 55.55895253798624 81.50664258734994 C 0.0 **** -0.24
12372 H 26.14635278468706 55.873633016200735 80.5695505923602 H 0.0 **** 0.06
12373 H 27.6875067136122 55.669608623788186 81.43715625997973 H 0.0 **** 0.06
12374 H 26.358307444428476 54.514424390319995 81.698672367814 H 0.0 **** 0.06
12375 H 26.227081234852143 56.17686022027353 82.32134139812666 H 0.0 **** 0.06
12376 C 60.53848592212467 69.91057896808803 7.134502795985128 C 0.0 **** -0.24
12377 H 60.99289564291862 69.97602083133546 8.12307354712216 H 0.0 **** 0.06
12378 H 61.17035817532955 70.42531851591832 6.4093292067482395 H 0.0 **** 0.06
12379 H 59.55444049627375 70.37857541653176 7.155877387353527 H 0.0 **** 0.06
12380 H 60.436776802376635 68.8636831646391 6.849451279228134 H 0.0 **** 0.06
12381 C 87.3498591052419 56.76805204576605 40.38313952839562 C 0.0 **** -0.24
12382 H 87.16826878033709 56.71477914022693 41.45675814692119 H 0.0 **** 0.06
12383 H 88.22275579185566 57.39202990677084 40.1924094994709 H 0.0 **** 0.06
12384 H 86.47975394299215 57.19803138983179 39.888276251155375 H 0.0 **** 0.06
12385 H 87.52895113652954 55.76444164700984 39.99570791756432 H 0.0 **** 0.06
12386 C 18.27893743573304 104.18071199789506 16.81048470187679 C 0.0 **** -0.24
12387 H 17.74631637805632 104.07353286227877 15.865631593457664 H 0.0 **** 0.06
12388 H 18.93528114496462 105.04945867302197 16.760563672910735 H 0.0 **** 0.06
12389 H 18.872155170630805 103.28526736821703 16.99712506779653 H 0.0 **** 0.06
12390 H 17.559882384927533 104.31485685002377 17.61929433461387 H 0.0 **** 0.06
12391 C 12.320981177579899 35.18805179897994 49.6403591256518 C 0.0 **** -0.24
12392 H 13.0042187808297 34.76912938760367 48.90037232861263 H 0.0 **** 0.06
12393 H 12.712383300061003 36.141272523115624 49.99601149405257 H 0.0 **** 0.06
12394 H 12.226393477545415 34.49694158248607 50.478060035127186 H 0.0 **** 0.06
12395 H 11.343140155582802 35.3425914375578 49.18435649979824 H 0.0 **** 0.06
12396 C 62.83745970701241 37.850701547621185 15.038022837346148 C 0.0 **** -0.24
12397 H 63.010160861483264 37.07913570389337 15.788680186408442 H 0.0 **** 0.06
12398 H 61.876035740067614 37.67634066417193 14.552825637775186 H 0.0 **** 0.06
12399 H 63.63243389488708 37.81709199074112 14.293610078925212 H 0.0 **** 0.06
12400 H 62.830472924837586 38.829104064797804 15.518058923864828 H 0.0 **** 0.06
12401 C 16.531513535192353 1.7462010642152137 25.602415416582886 C 0.0 **** -0.24
12402 H 16.27894228795246 2.114795533175837 24.60839538349967 H 0.0 **** 0.06
12403 H 16.157274346409434 2.443161313877951 26.354421129378863 H 0.0 **** 0.06
12404 H 17.613855836547984 1.6596054742174573 25.693964680869186 H 0.0 **** 0.06
12405 H 16.07346950910843 0.7684065369976594 25.754035147590002 H 0.0 **** 0.06
12406 C 11.709070134917141 114.8435455214882 53.43496510201808 C 0.0 **** -0.24
12407 H 12.229716643337838 114.21079054201769 54.1538025794363 H 0.0 **** 0.06
12408 H 11.017287204643821 114.23552416746996 52.851077751454 H 0.0 **** 0.06
12409 H 12.434791299658627 115.3092930785241 52.76854035241408 H 0.0 **** 0.06
12410 H 11.154241430001917 115.61645576939362 53.96711248740948 H 0.0 **** 0.06
12411 C 78.8172400758603 17.57917772479523 52.53962388346815 C 0.0 **** -0.24
12412 H 79.81406174980162 17.742710888166478 52.1306234000065 H 0.0 **** 0.06
12413 H 78.89981558229863 17.123926592671907 53.52656494504073 H 0.0 **** 0.06
12414 H 78.25881216116642 16.91602571420703 51.878843550547586 H 0.0 **** 0.06
12415 H 78.29714458209583 18.533107775551066 52.62130035368827 H 0.0 **** 0.06
12416 C 22.538370405318034 67.20065304081294 20.119785819763962 C 0.0 **** -0.24
12417 H 23.011403786815663 67.42745013659231 21.075142533817967 H 0.0 **** 0.06
12418 H 22.209975967200563 68.12662158243523 19.64684886175411 H 0.0 **** 0.06
12419 H 21.67764224980209 66.5520442857756 20.28636841114033 H 0.0 **** 0.06
12420 H 23.253872024207 66.69503661086475 19.47150778524326 H 0.0 **** 0.06
12421 C 100.13440765045786 75.51645181979549 17.596560073159832 C 0.0 **** -0.24
12422 H 101.01529237597964 76.06153954336324 17.933339446266313 H 0.0 **** 0.06
12423 H 100.4450872077764 74.60158330548089 17.090420891508373 H 0.0 **** 0.06
12424 H 99.56496755991756 76.13751839716639 16.905711170714536 H 0.0 **** 0.06
12425 H 99.51252968600411 75.26301061161558 18.45563129654009 H 0.0 **** 0.06
12426 C 93.44704416564002 65.63043575874741 85.7570923203923 C 0.0 **** -0.24
12427 H 92.47694429110194 65.32545701138085 86.14757416899153 H 0.0 **** 0.06
12428 H 93.70309200762091 66.61516301069602 86.14900015391092 H 0.0 **** 0.06
12429 H 93.40402506131034 65.6712465104732 84.66858746538674 H 0.0 **** 0.06
12430 H 94.20468088997853 64.90833788328666 86.06376690018573 H 0.0 **** 0.06
12431 C 110.34346694883 0.07374807221737001 10.439400335169669 C 0.0 **** -0.24
12432 H 109.72474562196174 0.6174957659547413 11.153325635360687 H 0.0 **** 0.06
12433 H 110.95064033737236 0.7802486727454472 9.871929240730843 H 0.0 **** 0.06
12434 H 109.70266157439426 -0.4845015024858803 9.756270114503401 H 0.0 **** 0.06
12435 H 110.99393809741615 -0.6172918068579971 10.97534261090233 H 0.0 **** 0.06
12436 C 101.81104966103311 1.2577846523065404 106.53590217201977 C 0.0 **** -0.24
12437 H 100.74971926625636 1.2003060115672355 106.29301948431603 H 0.0 **** 0.06
12438 H 101.9827445430351 2.089009753746069 107.21897800961912 H 0.0 **** 0.06
12439 H 102.38487519282731 1.4128799225282904 105.62208999341115 H 0.0 **** 0.06
12440 H 102.12630669110877 0.3271832815786553 107.00825700007601 H 0.0 **** 0.06
12441 C 9.95347073305497 29.228681475230445 80.09647424300516 C 0.0 **** -0.24
12442 H 10.023527486415475 29.866934780488123 79.21562536900336 H 0.0 **** 0.06
12443 H 9.183152787408147 28.47353259108175 79.93741941233401 H 0.0 **** 0.06
12444 H 9.694284002550972 29.835224951357702 80.9643672247011 H 0.0 **** 0.06
12445 H 10.91245432715911 28.73991919064153 80.26849709693585 H 0.0 **** 0.06
12446 C 79.1606854215556 66.13332365625286 3.7132664489654417 C 0.0 **** -0.24
12447 H 79.94243798562152 65.3828895896159 3.597691456073292 H 0.0 **** 0.06
12448 H 79.5814935650927 67.0290375560194 4.169867004924299 H 0.0 **** 0.06
12449 H 78.36968134715826 65.7373572877286 4.3508620943000835 H 0.0 **** 0.06
12450 H 78.74906580405701 66.3827943008084 2.735364794972611 H 0.0 **** 0.06
12451 C 66.0380805148591 32.530259004906256 77.42073713259362 C 0.0 **** -0.24
12452 H 66.20422441409261 31.555002397196482 77.87951680009792 H 0.0 **** 0.06
12453 H 66.97153134331214 32.89316105056706 76.99184605551508 H 0.0 **** 0.06
12454 H 65.68655220273217 33.23206538440826 78.1765086389785 H 0.0 **** 0.06
12455 H 65.28890655033013 32.43772735478663 76.63453981648297 H 0.0 **** 0.06
12456 C 60.905743481027066 67.78831608679454 22.60528476775314 C 0.0 **** -0.24
12457 H 61.24248683932688 68.82437898027919 22.60406721142076 H 0.0 **** 0.06
12458 H 61.21860285530003 67.30357070575982 21.680141573269516 H 0.0 **** 0.06
12459 H 59.81812946065997 67.75994300210854 22.68074171929186 H 0.0 **** 0.06
12460 H 61.34242431011868 67.26537608081483 23.456668125357176 H 0.0 **** 0.06
12461 C 51.48067014737592 1.119961424975786 55.797327678509724 C 0.0 **** -0.24
12462 H 52.461235746882096 1.1226417197483425 56.27273576959316 H 0.0 **** 0.06
12463 H 50.77331736156174 1.668551335930072 56.41901336537253 H 0.0 **** 0.06
12464 H 51.13864014543228 0.09214611914925008 55.676956888359804 H 0.0 **** 0.06
12465 H 51.55046612185458 1.5963992666409261 54.81917968288939 H 0.0 **** 0.06
12466 C 92.88024467213569 90.05978146646788 33.42528966805797 C 0.0 **** -0.24
12467 H 93.53634918691967 90.92883979451679 33.38416286182932 H 0.0 **** 0.06
12468 H 92.28260602190346 90.09896608946627 34.336964322883006 H 0.0 **** 0.06
12469 H 93.4810079843754 89.15029183993684 33.42263886849602 H 0.0 **** 0.06
12470 H 92.2201001012019 90.06102597521374 32.557795244059704 H 0.0 **** 0.06
12471 C 110.68062518317703 17.338859919352814 68.20080119126914 C 0.0 **** -0.24
12472 H 110.0237871746066 17.53505890043786 67.3538220243226 H 0.0 **** 0.06
12473 H 111.17492647449635 18.263135959727407 68.5000118235144 H 0.0 **** 0.06
12474 H 111.43063519444286 16.60050325225953 67.91531136033774 H 0.0 **** 0.06
12475 H 110.09242709436502 16.954048536464967 69.0345315042336 H 0.0 **** 0.06
12476 C 4.658167538853064 109.40417086092016 71.09544961458732 C 0.0 **** -0.24
12477 H 4.863941181128368 109.1834882116445 72.1426374273648 H 0.0 **** 0.06
12478 H 3.963486954821832 108.66422768082037 70.69783931944002 H 0.0 **** 0.06
12479 H 5.588625146230356 109.37140000701277 70.52739525183031 H 0.0 **** 0.06
12480 H 4.218730501708066 110.39853188787953 71.01314995199502 H 0.0 **** 0.06
12481 C 15.523584547589053 89.24389052391777 58.70523135587853 C 0.0 **** -0.24
12482 H 15.64284983774229 88.19455377740255 58.43631850428289 H 0.0 **** 0.06
12483 H 14.465881339503255 89.46412772507011 58.85269835372733 H 0.0 **** 0.06
12484 H 15.917396832207174 89.8707512609204 57.90433651519249 H 0.0 **** 0.06
12485 H 16.06914239549556 89.44710843033332 59.62648922202339 H 0.0 **** 0.06
12486 C 42.00482256909169 107.30011393226573 91.96849771640461 C 0.0 **** -0.24
12487 H 41.22431236322842 106.69076611040103 92.42549015377969 H 0.0 **** 0.06
12488 H 42.92966382936545 107.18953669817253 92.53528191213897 H 0.0 **** 0.06
12489 H 41.698408434927856 108.34570705368569 91.97460633691418 H 0.0 **** 0.06
12490 H 42.16591111578637 106.97457116806672 90.94144013427248 H 0.0 **** 0.06
12491 C 25.018301691894294 7.385096657276165 16.67529474226822 C 0.0 **** -0.24
12492 H 24.700768183383502 6.344974984503779 16.745567880876408 H 0.0 **** 0.06
12493 H 24.15110943755394 8.037853567847037 16.786290734682762 H 0.0 **** 0.06
12494 H 25.482401084225046 7.559273475334464 15.705153986758464 H 0.0 **** 0.06
12495 H 25.737533350967965 7.599275901101578 17.465919208225472 H 0.0 **** 0.06
12496 C 69.60291912702431 53.66464636826461 91.40338785747954 C 0.0 **** -0.24
12497 H 69.75960184597707 54.044847738704135 92.41308703909868 H 0.0 **** 0.06
12498 H 69.02109662534022 54.38635656037704 90.82973119931748 H 0.0 **** 0.06
12499 H 69.0625444693022 52.718470862954575 91.45141068817733 H 0.0 **** 0.06
12500 H 70.5670979469113 53.508185387683596 90.92062282484426 H 0.0 **** 0.06
12501 C 49.82101651607647 61.013022981276436 60.30894753817494 C 0.0 **** -0.24
12502 H 49.120907568727404 60.55844219151351 61.00988315073611 H 0.0 **** 0.06
12503 H 49.58404509572162 62.07112425473207 60.19457862795934 H 0.0 **** 0.06
12504 H 49.740704395932454 60.51587635802781 59.341780946188926 H 0.0 **** 0.06
12505 H 50.83671088782961 60.90651766541015 60.688098493224025 H 0.0 **** 0.06
12506 C 16.10153913820247 32.57695407492021 43.67351941076794 C 0.0 **** -0.24
12507 H 16.460175812087954 33.455966762149814 43.13812853774118 H 0.0 **** 0.06
12508 H 15.018897716946412 32.636015431387364 43.78290059390997 H 0.0 **** 0.06
12509 H 16.566005734859942 32.53773835440752 44.659501129673345 H 0.0 **** 0.06
12510 H 16.362575698683713 31.67941582285974 43.11365879357413 H 0.0 **** 0.06
12511 C 76.18949236162024 11.284296236420175 97.36028429585488 C 0.0 **** -0.24
12512 H 75.82740385353321 12.022159617806949 98.07683824364491 H 0.0 **** 0.06
12513 H 75.95773929119764 11.617421950708717 96.34868519886831 H 0.0 **** 0.06
12514 H 75.70196986627553 10.327360613976907 97.54847047452009 H 0.0 **** 0.06
12515 H 77.26774587686242 11.171485525152661 97.46881083363166 H 0.0 **** 0.06
12516 C 90.62953932325124 47.64754668723839 53.3012834157596 C 0.0 **** -0.24
12517 H 90.19200517383294 47.562217665014714 52.30657501889698 H 0.0 **** 0.06
12518 H 91.22766120764001 46.76037798526937 53.512470411813666 H 0.0 **** 0.06
12519 H 89.8343119564934 47.7344629016589 54.04129688906394 H 0.0 **** 0.06
12520 H 91.26406504462886 48.53176229058789 53.344442860605795 H 0.0 **** 0.06
12521 C 5.535472870806643 27.306162409583493 21.956316185220004 C 0.0 **** -0.24
12522 H 5.520978009838714 26.256936622311002 22.251341799207452 H 0.0 **** 0.06
12523 H 5.604779341404225 27.37685845827349 20.87107399328731 H 0.0 **** 0.06
12524 H 6.396515776730823 27.798175057188843 22.408731521878735 H 0.0 **** 0.06
12525 H 4.6206824573369545 27.791403875530648 22.29591765311372 H 0.0 **** 0.06
12526 C 104.41050747448458 13.33763098567627 95.35225480084418 C 0.0 **** -0.24
12527 H 104.65937922924175 13.603671466392257 94.32436407436339 H 0.0 **** 0.06
12528 H 103.43736765420701 12.847645392720977 95.37538370632086 H 0.0 **** 0.06
12529 H 104.3788339913713 14.238778575753201 95.96281490936394 H 0.0 **** 0.06
12530 H 105.16859348385765 12.658818468319737 95.74511130578526 H 0.0 **** 0.06
12531 C 33.74249045805371 5.365286122937988 10.260515561016689 C 0.0 **** -0.24
12532 H 32.99162407547651 5.291461015972345 9.474352443106966 H 0.0 **** 0.06
12533 H 34.03976759838427 4.36358238834319 10.573019917829697 H 0.0 **** 0.06
12534 H 33.32611987369148 5.904008609377911 11.111587575115891 H 0.0 **** 0.06
12535 H 34.612336743830525 5.90109930954614 9.881102054271537 H 0.0 **** 0.06
12536 C 43.21924644439218 76.28620593658619 73.25797971120497 C 0.0 **** -0.24
12537 H 42.300971197234844 75.7247319422062 73.08588819744946 H 0.0 **** 0.06
12538 H 44.05035888432974 75.59216511434803 73.38567251396728 H 0.0 **** 0.06
12539 H 43.11083708577655 76.89337566040447 74.15637732320747 H 0.0 **** 0.06
12540 H 43.41457856996442 76.93409890579835 72.40232607786601 H 0.0 **** 0.06
12541 C 63.55272019108711 9.052125178028064 99.16996619292226 C 0.0 **** -0.24
12542 H 64.40289588164316 8.380968685405264 99.29652167645963 H 0.0 **** 0.06
12543 H 62.64844347587087 8.563172056134192 99.53201372942269 H 0.0 **** 0.06
12544 H 63.436901303882316 9.29640617129246 98.11456499878292 H 0.0 **** 0.06
12545 H 63.72499743446674 9.96622412205275 99.73833020333942 H 0.0 **** 0.06
12546 C 86.82348431073444 52.96178837973743 54.09923621990212 C 0.0 **** -0.24
12547 H 87.10037014141409 53.30578659330439 53.1027235870858 H 0.0 **** 0.06
12548 H 85.98391034975643 53.55241751305985 54.466180046682545 H 0.0 **** 0.06
12549 H 87.67244428462874 53.077129387830546 54.772551405006325 H 0.0 **** 0.06
12550 H 86.53534060766674 51.9112950092192 54.05320488497965 H 0.0 **** 0.06
12551 C 52.85412377570303 84.92799103265227 90.5525037872392 C 0.0 **** -0.24
12552 H 52.46241776129676 83.91442495089191 90.64205935773748 H 0.0 **** 0.06
12553 H 53.858613816482766 84.96735510550639 90.97431916725319 H 0.0 **** 0.06
12554 H 52.20434200529405 85.6167430252178 91.0922947663835 H 0.0 **** 0.06
12555 H 52.88945267274338 85.21105135846616 89.5006313286654 H 0.0 **** 0.06
12556 C 107.42515434767367 10.869175141078 82.42935591454025 C 0.0 **** -0.24
12557 H 108.03182601897782 10.280814343155114 83.11684405828825 H 0.0 **** 0.06
12558 H 107.79664201943118 11.893250577313708 82.40117183116453 H 0.0 **** 0.06
12559 H 106.38863044869927 10.867899386927398 82.76857799974911 H 0.0 **** 0.06
12560 H 107.48133372763067 10.433774519653266 81.43137787093926 H 0.0 **** 0.06
12561 C 79.58856116306333 1.8580756745722056 22.584704200096468 C 0.0 **** -0.24
12562 H 78.50380526451318 1.9658660234140939 22.54695580237093 H 0.0 **** 0.06
12563 H 79.88242078948943 0.9551259864636563 22.04822453966551 H 0.0 **** 0.06
12564 H 79.90934910672877 1.7845951383502552 23.62384310897147 H 0.0 **** 0.06
12565 H 80.05550478158543 2.7258075187706936 22.119392439482525 H 0.0 **** 0.06
12566 C 92.76954084412492 90.63088341936458 45.86429645548464 C 0.0 **** -0.24
12567 H 93.42299640702902 90.03633963478569 46.50201851643304 H 0.0 **** 0.06
12568 H 91.73866305452583 90.52646324616555 46.20328819626272 H 0.0 **** 0.06
12569 H 92.85108040116737 90.28368215582822 44.83479488257041 H 0.0 **** 0.06
12570 H 93.06589173815271 91.67886718203533 45.91829829566466 H 0.0 **** 0.06
12571 C 80.84595141689437 96.58378059166049 73.7970338887603 C 0.0 **** -0.24
12572 H 80.89525569551611 95.52373934003941 74.04903921931353 H 0.0 **** 0.06
12573 H 80.69247182575623 97.1657002318158 74.70645545132848 H 0.0 **** 0.06
12574 H 80.01727379620516 96.75562352196471 73.1104172934437 H 0.0 **** 0.06
12575 H 81.77962612043535 96.88768598049265 73.32352460649514 H 0.0 **** 0.06
12576 C 88.05250021764263 38.88021474400779 94.60183731089171 C 0.0 **** -0.24
12577 H 88.29081016200865 39.94395392724502 94.59426747426625 H 0.0 **** 0.06
12578 H 88.30188721546227 38.45843160008047 95.57572441735113 H 0.0 **** 0.06
12579 H 88.62909013273074 38.37343318945949 93.82714281083696 H 0.0 **** 0.06
12580 H 86.98833818604857 38.74541865891794 94.40852889394063 H 0.0 **** 0.06
12581 C 5.361071020725575 24.834921894652403 77.77193269624138 C 0.0 **** -0.24
12582 H 5.702257585406429 24.530991228662174 76.7824622176318 H 0.0 **** 0.06
12583 H 4.41103999789398 25.361296810016434 77.68362963743428 H 0.0 **** 0.06
12584 H 6.101499539643896 25.494897266212476 78.22416393677716 H 0.0 **** 0.06
12585 H 5.231499275918779 23.951969902105702 78.39829197243006 H 0.0 **** 0.06
12586 C 14.502208906084945 38.24728485430728 19.34639075308604 C 0.0 **** -0.24
12587 H 15.564473744598615 38.256750718615194 19.099743541748182 H 0.0 **** 0.06
12588 H 14.285584599687837 37.391587514155646 19.985038444761173 H 0.0 **** 0.06
12589 H 13.91812148492474 38.17447377931009 18.429093426712 H 0.0 **** 0.06
12590 H 14.243579579656853 39.167118176974526 19.869490560968785 H 0.0 **** 0.06
12591 C 15.353633718475834 40.33144001079657 71.91417338335631 C 0.0 **** -0.24
12592 H 15.63909242494617 39.28117927712458 71.8560556371537 H 0.0 **** 0.06
12593 H 15.494857680042173 40.69014084143981 72.93395105443653 H 0.0 **** 0.06
12594 H 14.306169822910903 40.43972992458602 71.63225732550316 H 0.0 **** 0.06
12595 H 15.974414946004146 40.91471000003557 71.23442951633174 H 0.0 **** 0.06
12596 C 99.86324205726541 35.24417360060913 52.11429332483726 C 0.0 **** -0.24
12597 H 99.1659625455664 34.98993771608261 51.31549897736083 H 0.0 **** 0.06
12598 H 100.8157485596117 35.549622168407865 51.68096491065475 H 0.0 **** 0.06
12599 H 100.0165958220808 34.37308057004287 52.752246763574334 H 0.0 **** 0.06
12600 H 99.45358084580968 36.06192589935825 52.70791094808038 H 0.0 **** 0.06
12601 C 15.033372046825704 46.09258806781931 0.34858373868686954 C 0.0 **** -0.24
12602 H 14.952976098753766 45.097427524118274 -0.08989887844133193 H 0.0 **** 0.06
12603 H 14.495599864565037 46.1163822884198 1.2964038069533075 H 0.0 **** 0.06
12604 H 14.600236528627917 46.82580410758018 -0.333216042037364 H 0.0 **** 0.06
12605 H 16.08331349050235 46.33043765643694 0.5192984210342928 H 0.0 **** 0.06
12606 C 55.090664533338725 67.8390240551609 44.005693531938675 C 0.0 **** -0.24
12607 H 54.88937868650177 68.26316137283877 43.02178015586486 H 0.0 **** 0.06
12608 H 56.00774491693292 67.25025001724546 43.96613680636068 H 0.0 **** 0.06
12609 H 54.26009347251471 67.19827906450527 44.30206752392809 H 0.0 **** 0.06
12610 H 55.20537755645651 68.64359654041178 44.73163152347706 H 0.0 **** 0.06
12611 C 116.2949729973503 49.91920247099304 29.568391526094842 C 0.0 **** -0.24
12612 H 116.28513410233202 50.135729251200786 30.636793761143622 H 0.0 **** 0.06
12613 H 117.30679136522282 49.654133896063485 29.26019636118781 H 0.0 **** 0.06
12614 H 115.96480189475194 50.798577392102914 29.017020822206348 H 0.0 **** 0.06
12615 H 115.6221869373389 49.08633902217676 29.360515504508953 H 0.0 **** 0.06
12616 C 70.22006972665247 86.11841956852268 86.77553416003772 C 0.0 **** -0.24
12617 H 69.91481062306949 85.17016598131241 87.21804515880285 H 0.0 **** 0.06
12618 H 70.9320806855431 85.93104811921796 85.97155013014896 H 0.0 **** 0.06
12619 H 70.68787398121071 86.74027384090277 87.53840136618805 H 0.0 **** 0.06
12620 H 69.3450240851516 86.63104407152596 86.37480823668292 H 0.0 **** 0.06
12621 C 1.8316664519337849 107.22058602666294 39.51382018962758 C 0.0 **** -0.24
12622 H 1.7257410229082808 106.81680414087765 38.506414106191585 H 0.0 **** 0.06
12623 H 1.0869692150840962 106.76539704740594 40.16708048086028 H 0.0 **** 0.06
12624 H 1.6827564558896313 108.3004637953942 39.48957500183192 H 0.0 **** 0.06
12625 H 2.829806232288661 107.00025099661337 39.89055795102749 H 0.0 **** 0.06
12626 C 37.274917825566064 53.40860957318421 23.102011365308243 C 0.0 **** -0.24
12627 H 37.29800205220985 53.11219492743089 22.053994971333907 H 0.0 **** 0.06
12628 H 36.62829782494026 52.7285025718424 23.657575112432966 H 0.0 **** 0.06
12629 H 36.889865296097355 54.424845461322946 23.18357795435267 H 0.0 **** 0.06
12630 H 38.28348451811772 53.36823542727751 23.51364850006732 H 0.0 **** 0.06
12631 C 57.904434995324635 32.236005818553394 55.85160178238351 C 0.0 **** -0.24
12632 H 57.50583148363137 31.325519691885418 55.4051175524929 H 0.0 **** 0.06
12633 H 57.99817991503923 33.005589174765106 55.08474366506664 H 0.0 **** 0.06
12634 H 58.884105118716974 32.030648549887594 56.28180724832961 H 0.0 **** 0.06
12635 H 57.22962346391094 32.582265857675836 56.63473866364484 H 0.0 **** 0.06
12636 C 39.82710818195653 37.65311620095713 33.13992961756415 C 0.0 **** -0.24
12637 H 40.43801074940711 38.51584955461874 33.40494312281902 H 0.0 **** 0.06
12638 H 40.40469314812094 36.98005111078544 32.50580187532586 H 0.0 **** 0.06
12639 H 38.94056658744398 37.98804018378456 32.60132874578642 H 0.0 **** 0.06
12640 H 39.525746517659115 37.12883381701636 34.04604385705835 H 0.0 **** 0.06
12641 C 97.1197600129824 103.61166308877006 109.5738151451328 C 0.0 **** -0.24
12642 H 97.5558043877979 104.60574803947404 109.67446503626323 H 0.0 **** 0.06
12643 H 96.42430938410004 103.60419473503578 108.73456511767296 H 0.0 **** 0.06
12644 H 96.58736952897567 103.35462261757439 110.48900718780708 H 0.0 **** 0.06
12645 H 97.91143801149553 102.88431876135206 109.39729581471919 H 0.0 **** 0.06
12646 C 48.841950474605284 69.79838108592244 98.34717517674812 C 0.0 **** -0.24
12647 H 48.61985179538502 70.81329597568885 98.67604274202819 H 0.0 **** 0.06
12648 H 49.22965107663083 69.82256101878434 97.32826713601287 H 0.0 **** 0.06
12649 H 47.93071417084852 69.20046360691481 98.37514093138273 H 0.0 **** 0.06
12650 H 49.586234470839344 69.35693005108058 99.00956875542082 H 0.0 **** 0.06
12651 C 11.723052246599632 83.12075331797828 1.7208391691216889 C 0.0 **** -0.24
12652 H 10.658788858679298 83.17202372095133 1.9510689741609095 H 0.0 **** 0.06
12653 H 11.928829989409284 82.21354048770505 1.152932174486903 H 0.0 **** 0.06
12654 H 12.29462224432309 83.10590392964306 2.6497693594890546 H 0.0 **** 0.06
12655 H 12.010171747879593 83.99221197520887 1.1325040936961877 H 0.0 **** 0.06
12656 C 29.524667596903498 67.75079166295293 77.28584125379683 C 0.0 **** -0.24
12657 H 30.11939806788854 68.65338983960814 77.14768870343738 H 0.0 **** 0.06
12658 H 28.487108712743463 68.02400821204557 77.47843215188414 H 0.0 **** 0.06
12659 H 29.91426012711878 67.18503049844244 78.13164198727065 H 0.0 **** 0.06
12660 H 29.578121803442684 67.13860921794648 76.38495372910319 H 0.0 **** 0.06
12661 C 51.373030817581 79.01714539798857 1.6603171842724151 C 0.0 **** -0.24
12662 H 51.313420089216095 78.46155751390853 2.596502348957898 H 0.0 **** 0.06
12663 H 52.38997217558645 79.38684818597054 1.5215540607281923 H 0.0 **** 0.06
12664 H 50.68042196755684 79.85775883159786 1.692253968082099 H 0.0 **** 0.06
12665 H 51.10860469293672 78.35951783021255 0.8316708019213621 H 0.0 **** 0.06
12666 C 4.93241650880209 24.524713498834046 8.56704807222495 C 0.0 **** -0.24
12667 H 5.653151946094523 24.04770016586835 9.232509397727753 H 0.0 **** 0.06
12668 H 4.861794024572523 23.955511856451437 7.640293031331737 H 0.0 **** 0.06
12669 H 5.259957510813734 25.5399297791449 8.346476827070134 H 0.0 **** 0.06
12670 H 3.9564903512249234 24.55450342004042 9.051269759765859 H 0.0 **** 0.06
12671 C 24.272658679256637 93.78491366098646 7.415071482246434 C 0.0 **** -0.24
12672 H 23.46609373608667 93.2570252767974 7.922772916214964 H 0.0 **** 0.06
12673 H 25.22225933367517 93.2976376024832 7.637848604557995 H 0.0 **** 0.06
12674 H 24.30417807037172 94.81860827639383 7.758422461597593 H 0.0 **** 0.06
12675 H 24.098046391206537 93.7646509243387 6.339006903793299 H 0.0 **** 0.06
12676 C 55.58045072183711 56.06495539674847 103.37182862153571 C 0.0 **** -0.24
12677 H 55.356398730649175 55.710861926611585 102.36547406264992 H 0.0 **** 0.06
12678 H 55.416602461226034 55.25699835937661 104.08584417968223 H 0.0 **** 0.06
12679 H 54.92874597789012 56.90321840395211 103.61582443122597 H 0.0 **** 0.06
12680 H 56.620998027381916 56.387019832348074 103.42055040532392 H 0.0 **** 0.06
12681 C 19.9906657109874 55.28933153188626 67.07318696433595 C 0.0 **** -0.24
12682 H 19.678503245929846 54.25499586337071 67.21665916583822 H 0.0 **** 0.06
12683 H 19.200801365554724 55.839429781520266 66.56067134645252 H 0.0 **** 0.06
12684 H 20.900267519253532 55.315074519490395 66.47260653593418 H 0.0 **** 0.06
12685 H 20.18199116081803 55.748028490718355 68.04367688257037 H 0.0 **** 0.06
12686 C 28.77391284620097 96.10358869927276 5.029492730165984 C 0.0 **** -0.24
12687 H 29.566928223460565 96.04811804158044 5.774997633637312 H 0.0 **** 0.06
12688 H 28.066763738793412 95.28954318974246 5.191850578467381 H 0.0 **** 0.06
12689 H 29.205426032876375 96.01841506810439 4.032946344800237 H 0.0 **** 0.06
12690 H 28.255745281985696 97.05860555182451 5.121052549479359 H 0.0 **** 0.06
12691 C 105.22669708999763 26.98577010717611 41.594271898133485 C 0.0 **** -0.24
12692 H 104.44242565954428 26.463492682172586 41.04597307239899 H 0.0 **** 0.06
12693 H 104.82104349086973 27.368121088545422 42.53125582740245 H 0.0 **** 0.06
12694 H 105.59867137334109 27.815094420319213 40.993376541062815 H 0.0 **** 0.06
12695 H 106.04289069866908 26.295422346329218 41.806380140797586 H 0.0 **** 0.06
12696 C 81.75995679439961 43.07654366230531 94.1290087923557 C 0.0 **** -0.24
12697 H 81.59162216534071 42.050529863134955 93.80261934553798 H 0.0 **** 0.06
12698 H 81.12785110736002 43.74980073643201 93.5493275679114 H 0.0 **** 0.06
12699 H 82.8070228118296 43.33826763317177 93.97610264231506 H 0.0 **** 0.06
12700 H 81.51358433742871 43.16663960342635 95.18597103210351 H 0.0 **** 0.06
12701 C 16.495022093800245 24.67853536355628 64.83714914939804 C 0.0 **** -0.24
12702 H 16.667240252579006 24.108942049074955 65.75099453642605 H 0.0 **** 0.06
12703 H 17.04105909816812 25.62029215121339 64.88718590483194 H 0.0 **** 0.06
12704 H 15.428513329964119 24.881005985249033 64.73238873135892 H 0.0 **** 0.06
12705 H 16.841381556481267 24.102096480567184 63.97910234145735 H 0.0 **** 0.06
12706 C 104.92857628796145 55.16200251287095 25.279212571896387 C 0.0 **** -0.24
12707 H 105.32571840259953 55.946062793797545 25.925179039506084 H 0.0 **** 0.06
12708 H 103.95684148919003 54.840810281475854 25.654857380373734 H 0.0 **** 0.06
12709 H 105.613719068384 54.31466637755226 25.27323170701188 H 0.0 **** 0.06
12710 H 104.817671139879 55.54888284766354 24.26623842642023 H 0.0 **** 0.06
12711 C 75.81784176578287 27.54573012353694 107.43258163530282 C 0.0 **** -0.24
12712 H 74.86860121555952 27.46154356329008 107.96082013509945 H 0.0 **** 0.06
12713 H 76.43416149106508 28.306496228845873 107.91231378199276 H 0.0 **** 0.06
12714 H 75.63350732156232 27.827073651724817 106.39548683167004 H 0.0 **** 0.06
12715 H 76.33641501767067 26.586710762157125 107.46195327582276 H 0.0 **** 0.06
12716 C 20.46972038647837 57.922135355691864 107.0055254748022 C 0.0 **** -0.24
12717 H 20.566722243804037 58.22946095974538 105.96378191938584 H 0.0 **** 0.06
12718 H 21.395430278245527 58.145397228457114 107.53703499163956 H 0.0 **** 0.06
12719 H 20.27373269049795 56.8509631212965 107.04999810617664 H 0.0 **** 0.06
12720 H 19.64392449631569 58.46228849915127 107.4684668207945 H 0.0 **** 0.06
12721 C 44.39188814148588 52.77178364818948 28.408388571039453 C 0.0 **** -0.24
12722 H 44.02463685285451 53.79763079963618 28.372512359531612 H 0.0 **** 0.06
12723 H 43.6720128706969 52.11093307580171 27.92476565669645 H 0.0 **** 0.06
12724 H 44.52183012176346 52.46900126085433 29.447716676795267 H 0.0 **** 0.06
12725 H 45.34827467064264 52.70938745570061 27.88971289423486 H 0.0 **** 0.06
12726 C 90.089540210508 1.0754097647014191 88.59897261625363 C 0.0 **** -0.24
12727 H 89.74179418250856 0.14709203503343815 88.14515228827725 H 0.0 **** 0.06
12728 H 89.90084567682788 1.0480837946626593 89.67193235461093 H 0.0 **** 0.06
12729 H 89.55641398229295 1.9167690461469533 88.15712093815 H 0.0 **** 0.06
12730 H 91.158659888216 1.1888161003383289 88.42026037151689 H 0.0 **** 0.06
12731 C 72.27965056197272 75.37734629708413 2.0765836954838903 C 0.0 **** -0.24
12732 H 72.7152120727373 74.37848185125506 2.120276109768838 H 0.0 **** 0.06
12733 H 71.55048434362067 75.49025957371276 2.879213881134092 H 0.0 **** 0.06
12734 H 71.78734519386288 75.51653277055715 1.114007710799001 H 0.0 **** 0.06
12735 H 73.06724702219307 76.1217008332909 2.1922473677821586 H 0.0 **** 0.06
12736 C 115.20373964677995 26.238097449285874 70.32433337677998 C 0.0 **** -0.24
12737 H 114.90474014097637 25.274453497039985 69.91256334034816 H 0.0 **** 0.06
12738 H 114.8188945680941 27.037641148052103 69.69145574779014 H 0.0 **** 0.06
12739 H 116.29165794816984 26.29560637047274 70.36224736976203 H 0.0 **** 0.06
12740 H 114.79966592987947 26.34468878157861 71.33106704921943 H 0.0 **** 0.06
12741 C 48.915886626507344 25.891734199182665 26.68505503693808 C 0.0 **** -0.24
12742 H 49.36928957333547 25.150056165675693 27.34218241529453 H 0.0 **** 0.06
12743 H 49.12043141125781 25.629274819856306 25.64643068254196 H 0.0 **** 0.06
12744 H 49.33530366223531 26.87341162283191 26.901555976379825 H 0.0 **** 0.06
12745 H 47.83818081103837 25.912015869235887 26.84967837772888 H 0.0 **** 0.06
12746 C 35.88386923867965 59.46428958166388 115.08733357755139 C 0.0 **** -0.24
12747 H 35.734126898819795 60.363961538598176 115.6839729576734 H 0.0 **** 0.06
12748 H 36.66098839368112 59.646379929870164 114.34438745318121 H 0.0 **** 0.06
12749 H 34.95345758410474 59.20291787576528 114.58469965139969 H 0.0 **** 0.06
12750 H 36.18774010730394 58.64475482462649 115.73752675083027 H 0.0 **** 0.06
12751 C 32.689633981682526 31.254714292576352 111.92638130861583 C 0.0 **** -0.24
12752 H 32.94134755522448 30.242568541618255 111.60971710256868 H 0.0 **** 0.06
12753 H 32.273360368442084 31.806592170104068 111.08227397887681 H 0.0 **** 0.06
12754 H 33.58892795395395 31.757202068687718 112.28197423102023 H 0.0 **** 0.06
12755 H 31.954268053560256 31.211307378449703 112.72977333986886 H 0.0 **** 0.06
12756 C 11.609351859238075 87.5256785230377 68.31896770975453 C 0.0 **** -0.24
12757 H 12.125934357789422 87.53489353927205 69.27864450975721 H 0.0 **** 0.06
12758 H 12.314782219969501 87.26500828834531 67.52914046537575 H 0.0 **** 0.06
12759 H 11.191495733255543 88.51314246382367 68.12220844988255 H 0.0 **** 0.06
12760 H 10.805985378289503 86.78912494137205 68.34559690095097 H 0.0 **** 0.06
12761 C 66.84632820906822 23.811487928558535 1.3138401166502103 C 0.0 **** -0.24
12762 H 67.34022251906305 24.77872254823194 1.4107091529409477 H 0.0 **** 0.06
12763 H 66.06980283419611 23.874987277578754 0.5512405048199955 H 0.0 **** 0.06
12764 H 66.39769630704288 23.535144182748127 2.26782884527662 H 0.0 **** 0.06
12765 H 67.57833889327964 23.05737893433303 1.0249803928541041 H 0.0 **** 0.06
12766 C 50.76741161084098 95.48742362044672 63.214356729515885 C 0.0 **** -0.24
12767 H 50.547244998515055 96.37697355884083 63.80431479494939 H 0.0 **** 0.06
12768 H 51.342593749320855 95.77132458580095 62.3317039923225 H 0.0 **** 0.06
12769 H 49.83467124488783 95.01597236121185 62.90517058575779 H 0.0 **** 0.06
12770 H 51.347067665027765 94.78674997784915 63.815521669201985 H 0.0 **** 0.06
12771 C 3.122956460683934 41.57880292636739 2.2057224486687232 C 0.0 **** -0.24
12772 H 3.4147735917235096 42.08035747199028 3.1287819282443365 H 0.0 **** 0.06
12773 H 3.9533116337719996 40.969999348068825 1.8451166046302774 H 0.0 **** 0.06
12774 H 2.8657424058255163 42.324373261612266 1.4535524196502365 H 0.0 **** 0.06
12775 H 2.260113340068779 40.94158482007407 2.395995202693882 H 0.0 **** 0.06
12776 C 93.70366889796571 66.00707191521184 45.80016575373304 C 0.0 **** -0.24
12777 H 94.45228858527565 65.58628784526485 46.47112571593874 H 0.0 **** 0.06
12778 H 94.12351678375387 66.87193449006188 45.28478186973837 H 0.0 **** 0.06
12779 H 92.83143990967903 66.31406280972584 46.37611025522733 H 0.0 **** 0.06
12780 H 93.40967217565355 65.25536481026504 45.06789169377538 H 0.0 **** 0.06
12781 C 13.431835277763966 15.352026168224143 46.78469685172752 C 0.0 **** -0.24
12782 H 13.242005828954035 15.528639401337102 45.72631531811567 H 0.0 **** 0.06
12783 H 12.954940472137608 14.41968203066358 47.08834758032286 H 0.0 **** 0.06
12784 H 13.022573990976838 16.176505178470563 47.369410103571894 H 0.0 **** 0.06
12785 H 14.506430974617189 15.283142630365035 46.95493825056852 H 0.0 **** 0.06
12786 C 48.15544520739604 42.538969878300236 22.70947249924751 C 0.0 **** -0.24
12787 H 47.712654590350496 43.1334397556999 23.508146372125168 H 0.0 **** 0.06
12788 H 49.201837091658206 42.81808189885646 22.58619044028177 H 0.0 **** 0.06
12789 H 47.61831088383569 42.723317303266015 21.77947966651766 H 0.0 **** 0.06
12790 H 48.08757024451779 41.48110487739456 22.963957498030027 H 0.0 **** 0.06
12791 C 0.09849788635557388 39.55981888398854 8.36743773805702 C 0.0 **** -0.24
12792 H 0.30038469269521784 38.544209229531404 8.027006080891226 H 0.0 **** 0.06
12793 H -0.9785507307883563 39.72774583756547 8.39075766518215 H 0.0 **** 0.06
12794 H 0.5633723532534702 40.271467176461705 7.68486362206913 H 0.0 **** 0.06
12795 H 0.5094955295767534 39.69530254866869 9.368215496321184 H 0.0 **** 0.06
12796 C 36.77943874889312 69.50288076554199 42.66431685074963 C 0.0 **** -0.24
12797 H 37.024594278600276 69.31283640342872 43.70889706748977 H 0.0 **** 0.06
12798 H 36.7002593585443 68.5553677266204 42.13156961518973 H 0.0 **** 0.06
12799 H 37.56348385967534 70.10976269228533 42.212326240706545 H 0.0 **** 0.06
12800 H 35.829271497343505 70.03386974857622 42.60584579721092 H 0.0 **** 0.06
12801 C 85.69607293326322 31.91580033829547 54.64921801330789 C 0.0 **** -0.24
12802 H 85.91340277563282 31.121962230270697 53.93584597913354 H 0.0 **** 0.06
12803 H 86.10741405659124 31.650937527028816 55.62358456342209 H 0.0 **** 0.06
12804 H 84.61618620197504 32.04362178086831 54.733220249642194 H 0.0 **** 0.06
12805 H 86.1465907051292 32.84727254992856 54.30529903010981 H 0.0 **** 0.06
12806 C 21.5261260594308 68.82071235608598 10.587282363543306 C 0.0 **** -0.24
12807 H 21.1541570475996 68.21297752509065 9.761515155857321 H 0.0 **** 0.06
12808 H 20.75942927389896 68.89294190063856 11.358576008986638 H 0.0 **** 0.06
12809 H 21.77098819716699 69.81831316091288 10.222452070833416 H 0.0 **** 0.06
12810 H 22.41920333968444 68.35652120100843 11.00433205338345 H 0.0 **** 0.06
12811 C 81.31496018369481 76.68558458441282 8.977099502163526 C 0.0 **** -0.24
12812 H 82.39802861500041 76.7843584112662 9.051560788643712 H 0.0 **** 0.06
12813 H 80.92647323574792 77.447615374364 8.30077858340384 H 0.0 **** 0.06
12814 H 80.8706430462666 76.81450788485 9.96403771112604 H 0.0 **** 0.06
12815 H 81.06662686786899 75.69708198461976 8.591143390190894 H 0.0 **** 0.06
12816 C 14.036674217064203 95.0767777028949 29.664969720288354 C 0.0 **** -0.24
12817 H 14.573724003419322 95.74303843763167 28.990793888435917 H 0.0 **** 0.06
12818 H 13.188829156610769 94.63490251401106 29.13998483559493 H 0.0 **** 0.06
12819 H 13.677612628786154 95.64192005700036 30.524659675236364 H 0.0 **** 0.06
12820 H 14.707110645747246 94.28624817442139 30.00362748784363 H 0.0 **** 0.06
12821 C 48.315559977447265 14.0607037899304 55.04674735339202 C 0.0 **** -0.24
12822 H 48.609205556594986 13.372542363666383 55.83814862636325 H 0.0 **** 0.06
12823 H 47.25658373776511 14.298675354183274 55.14627531833483 H 0.0 **** 0.06
12824 H 48.49360705659757 13.59659785176575 54.07690620303683 H 0.0 **** 0.06
12825 H 48.902753815631755 14.976169907778711 55.12487033059983 H 0.0 **** 0.06
12826 C 79.33103469760064 72.03465294012054 24.086374828598622 C 0.0 **** -0.24
12827 H 80.20938485210294 71.39405050451313 23.998002986771013 H 0.0 **** 0.06
12828 H 79.38243721414423 72.59293665793513 25.021722945955332 H 0.0 **** 0.06
12829 H 78.43164236764397 71.42059876642364 24.078580372420944 H 0.0 **** 0.06
12830 H 79.3034623718948 72.7311686087933 23.248983881505723 H 0.0 **** 0.06
12831 C 73.96591433852439 98.71995965458456 50.23437625562207 C 0.0 **** -0.24
12832 H 74.64911443508993 99.34194365619157 50.812023594975386 H 0.0 **** 0.06
12833 H 74.5401173395316 98.0250559238516 49.619508926434925 H 0.0 **** 0.06
12834 H 73.3524009762726 99.35253414498831 49.59220269490129 H 0.0 **** 0.06
12835 H 73.3230953526992 98.15877069232263 50.91218864484502 H 0.0 **** 0.06
12836 C 103.34687403296675 42.10661471265243 94.86174375806974 C 0.0 **** -0.24
12837 H 102.44867308504865 41.52133854461196 95.06154840090957 H 0.0 **** 0.06
12838 H 104.07458578160262 41.48681609158075 94.33909361274405 H 0.0 **** 0.06
12839 H 103.77279461932619 42.45135448652591 95.80368010019151 H 0.0 **** 0.06
12840 H 103.0891766055752 42.96624783466936 94.24326345549113 H 0.0 **** 0.06
12841 C 68.99295534510671 24.27954697776093 64.29862601318806 C 0.0 **** -0.24
12842 H 68.32137048242427 25.117477363616672 64.10852215983604 H 0.0 **** 0.06
12843 H 69.85020544831468 24.624549813307567 64.87596925480551 H 0.0 **** 0.06
12844 H 69.33527148818507 23.866677155475514 63.34996795899222 H 0.0 **** 0.06
12845 H 68.4622202776028 23.51021390287042 64.858346300464 H 0.0 **** 0.06
12846 C 13.690970006793634 81.73228487499782 72.97873419661511 C 0.0 **** -0.24
12847 H 13.755797596070238 80.68990728094244 72.66608371498637 H 0.0 **** 0.06
12848 H 12.743134419230728 81.90015538647387 73.48918801381745 H 0.0 **** 0.06
12849 H 13.751769841931946 82.37787702112371 72.10200323070569 H 0.0 **** 0.06
12850 H 14.51479587137294 81.96059209195772 73.65520943188778 H 0.0 **** 0.06
12851 C 64.63373179791225 7.920535108385806 36.01820713842719 C 0.0 **** -0.24
12852 H 65.44250068585947 8.520881504545429 36.43317698757468 H 0.0 **** 0.06
12853 H 64.65370696163365 6.925653106736604 36.464795147194366 H 0.0 **** 0.06
12854 H 64.75920882911663 7.836879945254253 34.93925198503277 H 0.0 **** 0.06
12855 H 63.678697945605926 8.39759860369513 36.237621612388836 H 0.0 **** 0.06
12856 C 92.23654426881197 103.93449333614598 92.6485982479978 C 0.0 **** -0.24
12857 H 92.13399069815907 104.11387686482499 93.71835953959229 H 0.0 **** 0.06
12858 H 91.39623273668144 103.33409682490674 92.298160522855 H 0.0 **** 0.06
12859 H 93.1674653688807 103.40219031274188 92.45694679337473 H 0.0 **** 0.06
12860 H 92.24733936372354 104.88804761292829 92.1201366084766 H 0.0 **** 0.06
12861 C 116.13798853438551 6.531510550101544 63.34193178265989 C 0.0 **** -0.24
12862 H 116.48102408644618 7.504470064465778 63.6934617910179 H 0.0 **** 0.06
12863 H 116.48767707185752 5.755422903559321 64.02382322717912 H 0.0 **** 0.06
12864 H 116.5368962455085 6.3448197296823565 62.344657414155726 H 0.0 **** 0.06
12865 H 115.04856073450017 6.52143714713462 63.30614675288012 H 0.0 **** 0.06
12866 C 14.415940399794266 68.91306943999962 11.230814744514532 C 0.0 **** -0.24
12867 H 14.23666781220561 68.03721229764568 11.852924433634257 H 0.0 **** 0.06
12868 H 15.44430116780184 68.89863201427704 10.869079088320746 H 0.0 **** 0.06
12869 H 14.249646196304923 69.81584323514605 11.818569521946245 H 0.0 **** 0.06
12870 H 13.731557959099618 68.90130226095692 10.381282345640557 H 0.0 **** 0.06
12871 C 25.064415183980543 116.50427068164637 93.96815866508342 C 0.0 **** -0.24
12872 H 26.080890184850205 116.72922003575655 94.29023209488574 H 0.0 **** 0.06
12873 H 24.610814965457678 117.40020343365725 93.54480740892808 H 0.0 **** 0.06
12874 H 24.477901536264767 116.1686179804308 94.82341182727711 H 0.0 **** 0.06
12875 H 25.08816293294808 115.71704811608821 93.21405808079464 H 0.0 **** 0.06
12876 C 66.93667007066804 56.07216883613583 8.034953527331936 C 0.0 **** -0.24
12877 H 66.75940683786553 56.350042398889315 6.995947272002837 H 0.0 **** 0.06
12878 H 66.08486601779535 55.503218787831514 8.407841816160698 H 0.0 **** 0.06
12879 H 67.0633279045085 56.972504453959715 8.63514304937118 H 0.0 **** 0.06
12880 H 67.8381849771892 55.46268502795323 8.099809859150866 H 0.0 **** 0.06
12881 C 51.41825760102242 104.72471667831408 95.0773512336429 C 0.0 **** -0.24
12882 H 51.71674160306986 105.73335797735615 94.79284472311122 H 0.0 **** 0.06
12883 H 50.35659104089373 104.58881922483772 94.86930554621284 H 0.0 **** 0.06
12884 H 51.60140919305405 104.5781669568577 96.14165975079504 H 0.0 **** 0.06
12885 H 51.996509821092246 103.99979394863627 94.50606385921319 H 0.0 **** 0.06
12886 C 72.74201510769453 32.16422321873185 19.782988049738265 C 0.0 **** -0.24
12887 H 72.32743666128982 32.05274670318494 20.78584784822728 H 0.0 **** 0.06
12888 H 72.97200822228754 33.213989729359426 19.60013450292205 H 0.0 **** 0.06
12889 H 72.01394855827866 31.81743788589995 19.049877567064662 H 0.0 **** 0.06
12890 H 73.65333610633542 31.572108432945683 19.699387315710073 H 0.0 **** 0.06
12891 C 31.222693479802473 40.36521694358606 74.23376282798796 C 0.0 **** -0.24
12892 H 30.28781069892682 40.92198649130192 74.28805605867723 H 0.0 **** 0.06
12893 H 31.990301671293224 40.88735938518804 74.80616738907224 H 0.0 **** 0.06
12894 H 31.537304443007997 40.2842981002793 73.1937907187625 H 0.0 **** 0.06
12895 H 31.076245216854943 39.36711421990694 74.6474835867707 H 0.0 **** 0.06
12896 C 57.75162884634358 104.95784306987278 22.562467671597858 C 0.0 **** -0.24
12897 H 58.727822991888075 105.35707425219513 22.835094403875758 H 0.0 **** 0.06
12898 H 57.820188661878774 104.45646899912501 21.596393848321895 H 0.0 **** 0.06
12899 H 57.030612474713564 105.77319957234513 22.49772066286903 H 0.0 **** 0.06
12900 H 57.42599202668853 104.24489592763129 23.319511898439373 H 0.0 **** 0.06
12901 C 26.1900033100083 43.385561124678674 101.62798873690221 C 0.0 **** -0.24
12902 H 25.174187161918468 43.78132359561248 101.61718986647912 H 0.0 **** 0.06
12903 H 26.426239264152947 43.0212610747143 102.62840269385086 H 0.0 **** 0.06
12904 H 26.89014891295328 44.17371075244881 101.35377864313025 H 0.0 **** 0.06
12905 H 26.266999368047415 42.56567905741514 100.91481562352337 H 0.0 **** 0.06
12906 C 107.04260491143958 54.96334239170772 89.0065309023986 C 0.0 **** -0.24
12907 H 106.83993811143753 55.977091188023586 88.66031775751071 H 0.0 **** 0.06
12908 H 108.11437552670222 54.76996902092624 88.95710947275893 H 0.0 **** 0.06
12909 H 106.51453933419006 54.250830352323476 88.37210410707479 H 0.0 **** 0.06
12910 H 106.7001196040336 54.85698654273046 90.03579627470754 H 0.0 **** 0.06
12911 C 81.24527242911142 50.4850224656324 11.496020959218896 C 0.0 **** -0.24
12912 H 80.74024746874653 51.304637686555935 10.985321813871053 H 0.0 **** 0.06
12913 H 80.84610604574607 50.38629199632692 12.506316240490108 H 0.0 **** 0.06
12914 H 82.31434172258321 50.691772656470306 11.545266957152052 H 0.0 **** 0.06
12915 H 81.07926255923269 49.558139019991074 10.946786237230555 H 0.0 **** 0.06
12916 C 66.77236146738713 43.12273966356233 84.80581141916434 C 0.0 **** -0.24
12917 H 65.90790234823422 43.75722385337153 84.6058156407642 H 0.0 **** 0.06
12918 H 66.44511731269404 42.210978875140654 85.30535869819866 H 0.0 **** 0.06
12919 H 67.4743725822816 43.65762203719882 85.44565219509914 H 0.0 **** 0.06
12920 H 67.2599153577674 42.86758957896552 83.86457572057566 H 0.0 **** 0.06
12921 C 15.841705620440479 102.19206448783186 101.86752429407153 C 0.0 **** -0.24
12922 H 15.25483802814 101.51833678062596 102.49217811409554 H 0.0 **** 0.06
12923 H 15.17225718277723 102.7695713516662 101.22895115410279 H 0.0 **** 0.06
12924 H 16.523639251527527 101.60972358345614 101.24818065910546 H 0.0 **** 0.06
12925 H 16.413997189689155 102.86852081140418 102.50123012928 H 0.0 **** 0.06
12926 C 103.58615099130432 101.29143851351495 88.93556764741984 C 0.0 **** -0.24
12927 H 103.1271347166921 101.98226555045343 89.64211486769878 H 0.0 **** 0.06
12928 H 104.51201559322607 100.90153858233646 89.35767155426359 H 0.0 **** 0.06
12929 H 103.80254981680943 101.81503483132101 88.00429249021491 H 0.0 **** 0.06
12930 H 102.90160750746492 100.46674803136747 88.73765155399303 H 0.0 **** 0.06
12931 C 104.73163222495523 38.755568399178316 24.885137066008802 C 0.0 **** -0.24
12932 H 104.18412798922466 38.25436821097901 24.087442011031918 H 0.0 **** 0.06
12933 H 105.06362979153985 38.01882266505996 25.617504718499994 H 0.0 **** 0.06
12934 H 104.0815073265789 39.48326717953498 25.37076044179402 H 0.0 **** 0.06
12935 H 105.59793276466948 39.2670615541071 24.46484772528786 H 0.0 **** 0.06
12936 C 111.84170662113573 40.729117635980714 113.00171425619129 C 0.0 **** -0.24
12937 H 112.16736478948276 41.74606253147542 112.78270784646195 H 0.0 **** 0.06
12938 H 112.68638939553195 40.04723340346251 112.89786852768036 H 0.0 **** 0.06
12939 H 111.05460701136033 40.442256167756085 112.30480419558003 H 0.0 **** 0.06
12940 H 111.45969729099141 40.68151704035685 114.02112436950458 H 0.0 **** 0.06
12941 C 5.40715775595379 18.444304881046605 55.7073417278934 C 0.0 **** -0.24
12942 H 6.47805764811379 18.258405756587536 55.63225618263149 H 0.0 **** 0.06
12943 H 5.229821582964917 19.27179508974305 56.39458391521212 H 0.0 **** 0.06
12944 H 4.908759600655998 17.549116599348082 56.078786424973664 H 0.0 **** 0.06
12945 H 5.0123462772507 18.698129521080347 54.722833221947866 H 0.0 **** 0.06
12946 C 54.7198089896232 107.77195430218117 91.67251860884417 C 0.0 **** -0.24
12947 H 53.97774397708335 107.56750269958664 90.90104145579744 H 0.0 **** 0.06
12948 H 54.54318087625319 107.11930257663437 92.52765498266726 H 0.0 **** 0.06
12949 H 54.64065970061114 108.8128861117192 91.98659239501174 H 0.0 **** 0.06
12950 H 55.71769367982873 107.58712858527414 91.27484718263938 H 0.0 **** 0.06
12951 C 77.98106107639114 3.1169818637169726 26.66298546473979 C 0.0 **** -0.24
12952 H 78.31307402844979 4.1317537793274255 26.88634263965701 H 0.0 **** 0.06
12953 H 76.91854564592009 3.128721428547024 26.417481533482317 H 0.0 **** 0.06
12954 H 78.14605802294585 2.4822746687849246 27.532820890361847 H 0.0 **** 0.06
12955 H 78.54659224087666 2.7282280653130755 25.816130133260323 H 0.0 **** 0.06
12956 C 31.263618611454433 100.77042061995778 12.046451852740972 C 0.0 **** -0.24
12957 H 32.20305008112649 100.90463550777653 11.510730086828005 H 0.0 **** 0.06
12958 H 31.08700063790681 99.7066697605245 12.208736243308095 H 0.0 **** 0.06
12959 H 30.446905458692385 101.18873522809687 11.4587755493786 H 0.0 **** 0.06
12960 H 31.317518268092186 101.28164198343333 13.00756553144933 H 0.0 **** 0.06
12961 C 68.23727035146996 44.22664550413532 60.28075259532906 C 0.0 **** -0.24
12962 H 68.8086152563931 44.797395904949155 61.01279285597758 H 0.0 **** 0.06
12963 H 67.22100030548825 44.61785894483069 60.2274774895337 H 0.0 **** 0.06
12964 H 68.20788490009761 43.1783959084911 60.58108466074796 H 0.0 **** 0.06
12965 H 68.71167325851948 44.31178854118599 59.302953777854896 H 0.0 **** 0.06
12966 C 83.83811891014744 90.04434677672864 106.04291896168354 C 0.0 **** -0.24
12967 H 84.6006705191383 89.61043109559228 105.39646156498384 H 0.0 **** 0.06
12968 H 82.90189127017246 90.13276092773307 105.49228689180339 H 0.0 **** 0.06
12969 H 84.16140807233944 91.0318147926867 106.3729341500028 H 0.0 **** 0.06
12970 H 83.69072500724911 89.40167120441765 106.91188341044327 H 0.0 **** 0.06
12971 C 45.35977719762383 101.99781537222034 99.67437073095036 C 0.0 **** -0.24
12972 H 46.29257770696182 101.47470131794734 99.88457742099476 H 0.0 **** 0.06
12973 H 45.05797743039943 101.80326596850679 98.64500033092045 H 0.0 **** 0.06
12974 H 45.503695136942156 103.06910081800459 99.81474552848184 H 0.0 **** 0.06
12975 H 44.58420320904963 101.64374524801534 100.35376775882023 H 0.0 **** 0.06
12976 C 13.023009934511322 83.64766088929053 5.440385579577731 C 0.0 **** -0.24
12977 H 12.069871817509835 83.45903565794288 5.935040261157468 H 0.0 **** 0.06
12978 H 13.291587019960787 82.78576390330039 4.828917717891439 H 0.0 **** 0.06
12979 H 13.79459747108956 83.8147834303332 6.192306271822421 H 0.0 **** 0.06
12980 H 12.935365609843672 84.53054002979263 4.807107704993307 H 0.0 **** 0.06
12981 C 91.7153949479827 40.463155754053474 84.4293134140367 C 0.0 **** -0.24
12982 H 91.58920183671614 39.82789831485701 83.55233435101994 H 0.0 **** 0.06
12983 H 90.73691825201229 40.71514353767449 84.8390505469103 H 0.0 **** 0.06
12984 H 92.23769441727154 41.37597938542396 84.14373116921917 H 0.0 **** 0.06
12985 H 92.29866701365097 39.93080260733032 85.18097478646308 H 0.0 **** 0.06
12986 C 80.67695291434808 82.29973398183603 79.00533665939972 C 0.0 **** -0.24
12987 H 80.93938796915103 83.11032665473567 78.32452434792711 H 0.0 **** 0.06
12988 H 79.86078516062048 82.61907876566877 79.65240852344081 H 0.0 **** 0.06
12989 H 81.54444195638666 82.04175056872549 79.61258477237641 H 0.0 **** 0.06
12990 H 80.3650218184473 81.42890589944193 78.42876280784844 H 0.0 **** 0.06
12991 C 29.097811121026183 59.367345245735 7.337232287670886 C 0.0 **** -0.24
12992 H 29.858861595403937 58.69202051678132 6.945035005768858 H 0.0 **** 0.06
12993 H 29.442459529816574 59.79474376528976 8.278727869894311 H 0.0 **** 0.06
12994 H 28.174349801420078 58.81340324900727 7.505293013710158 H 0.0 **** 0.06
12995 H 28.917130636135823 60.16642163206924 6.618989017674551 H 0.0 **** 0.06
12996 C 79.03757087269486 63.926325453456684 98.74079918973811 C 0.0 **** -0.24
12997 H 79.23784528834815 63.283786201237234 99.59859664401839 H 0.0 **** 0.06
12998 H 78.26444953219857 63.4726247864329 98.1212065611852 H 0.0 **** 0.06
12999 H 79.94898301815451 64.04663957458465 98.15613320509775 H 0.0 **** 0.06
13000 H 78.69829030975183 64.90196564507895 99.09092197765833 H 0.0 **** 0.06
13001 C 43.88617030838866 5.2727844481555195 81.41571395032332 C 0.0 **** -0.24
13002 H 44.641446236523876 5.63522365783723 82.11201989772727 H 0.0 **** 0.06
13003 H 42.93436445721957 5.76125004372895 81.62520372875994 H 0.0 **** 0.06
13004 H 43.77430163398691 4.194320351534827 81.5307904474497 H 0.0 **** 0.06
13005 H 44.1947258904615 5.499453124359391 80.3952685979543 H 0.0 **** 0.06
13006 C 97.95839664279882 26.869847729818304 31.272003510873844 C 0.0 **** -0.24
13007 H 98.88410474095522 27.306736772292254 30.89714559135794 H 0.0 **** 0.06
13008 H 97.10754043514913 27.35808595891271 30.796128368909223 H 0.0 **** 0.06
13009 H 97.90205889115654 27.011586170875802 32.35132331645144 H 0.0 **** 0.06
13010 H 97.94058647521109 25.804504606155803 31.04384841644972 H 0.0 **** 0.06
13011 C 92.93492440681621 31.05518686574436 24.665952751237484 C 0.0 **** -0.24
13012 H 92.58815705973626 31.036321475444197 25.69965460850773 H 0.0 **** 0.06
13013 H 93.72756352424233 30.318596157849825 24.535391227613474 H 0.0 **** 0.06
13014 H 93.31723675529531 32.04835219924598 24.428765284916523 H 0.0 **** 0.06
13015 H 92.10432826249377 30.817863733818967 24.00018265557088 H 0.0 **** 0.06
13016 C 73.33222705829832 26.159436779514984 109.9781797409387 C 0.0 **** -0.24
13017 H 74.29041587409966 26.33473259175424 110.46762489074415 H 0.0 **** 0.06
13018 H 72.81383484702206 25.340837431820738 110.47990449750316 H 0.0 **** 0.06
13019 H 73.49991900365552 25.89797936865927 108.93363947523171 H 0.0 **** 0.06
13020 H 72.72530936985578 27.062894501339116 110.03486317706371 H 0.0 **** 0.06
13021 C 70.78305629822461 50.34247344323083 95.26234034858919 C 0.0 **** -0.24
13022 H 70.95676678739872 51.40917976951772 95.40569052406832 H 0.0 **** 0.06
13023 H 69.88577767707702 50.19823934118037 94.6601795820435 H 0.0 **** 0.06
13024 H 70.65303102926202 49.86301854914075 96.23202449271048 H 0.0 **** 0.06
13025 H 71.63871096348328 49.90125227334073 94.75074190787049 H 0.0 **** 0.06
13026 C 3.4576105533993857 29.617034365538736 25.63947412691082 C 0.0 **** -0.24
13027 H 2.5649118826220967 29.22026869868798 25.157710744130632 H 0.0 **** 0.06
13028 H 3.220456713115709 29.90120021915208 26.66542094497874 H 0.0 **** 0.06
13029 H 3.808993672456337 30.491312090968222 25.091415431701087 H 0.0 **** 0.06
13030 H 4.237262288582725 28.854385756620232 25.64498036896685 H 0.0 **** 0.06
13031 C 37.78446638099604 96.09084705344685 55.12017106286788 C 0.0 **** -0.24
13032 H 37.341831208657595 95.35651080084085 54.44803471488268 H 0.0 **** 0.06
13033 H 37.979985469456665 97.01344322933437 54.572227965853074 H 0.0 **** 0.06
13034 H 38.72107564799012 95.69918875712315 55.51902557137413 H 0.0 **** 0.06
13035 H 37.09620389076713 96.29362003494637 55.94108875917027 H 0.0 **** 0.06
13036 C 6.5989784700259975 48.59536021212594 60.58779719057329 C 0.0 **** -0.24
13037 H 5.840191392370343 48.12049822086405 61.209991887839074 H 0.0 **** 0.06
13038 H 6.190129684525601 48.77830723340378 59.59315749216368 H 0.0 **** 0.06
13039 H 7.4668577406783925 47.941189011127165 60.510095686233235 H 0.0 **** 0.06
13040 H 6.89639149990893 49.54300904548671 61.03768627629311 H 0.0 **** 0.06
13041 C 59.70807330487137 78.0601197297604 50.90273115657851 C 0.0 **** -0.24
13042 H 59.34791776244381 77.53120532482109 50.0191381368665 H 0.0 **** 0.06
13043 H 59.73281571831938 77.37523527218434 51.75061032581539 H 0.0 **** 0.06
13044 H 59.03838773886189 78.89118841953166 51.125924102561044 H 0.0 **** 0.06
13045 H 60.71115616760719 78.44147506847202 50.71300553258038 H 0.0 **** 0.06
13046 C 41.15080044218602 65.56043675269476 6.986345577737609 C 0.0 **** -0.24
13047 H 41.12090408827484 64.57395496014192 7.4502592693004885 H 0.0 **** 0.06
13048 H 40.42576390123718 66.21287032713775 7.471672622231608 H 0.0 **** 0.06
13049 H 40.90862311713085 65.4710236728491 5.926970546357325 H 0.0 **** 0.06
13050 H 42.14989877030845 65.9825337647099 7.096048019000591 H 0.0 **** 0.06
13051 C 83.71600774691919 36.05160746525678 95.95000962935185 C 0.0 **** -0.24
13052 H 84.47295616117296 36.509925284222135 96.58628066168231 H 0.0 **** 0.06
13053 H 84.06824803869992 35.076721720268694 95.61239069147973 H 0.0 **** 0.06
13054 H 83.53191821498697 36.69106597611656 95.08605714993635 H 0.0 **** 0.06
13055 H 82.79154187825873 35.92961809425603 96.51442296643083 H 0.0 **** 0.06
13056 C 64.26964410620695 63.64771309572063 74.1574459422784 C 0.0 **** -0.24
13057 H 65.0941913984351 62.99997467909924 74.45496848543996 H 0.0 **** 0.06
13058 H 64.04619773557272 64.34480913150901 74.96516297924211 H 0.0 **** 0.06
13059 H 63.38939530642577 63.03937481872407 73.94657719020574 H 0.0 **** 0.06
13060 H 64.5489048971335 64.20379391680564 73.26231437772776 H 0.0 **** 0.06
13061 C 90.26308704022466 86.08464589199178 62.13603948704565 C 0.0 **** -0.24
13062 H 90.89819504629759 85.20010493418778 62.11554633858893 H 0.0 **** 0.06
13063 H 90.67657368948784 86.81337663895744 62.83390645781307 H 0.0 **** 0.06
13064 H 89.2597225151012 85.80363746542344 62.45714990532977 H 0.0 **** 0.06
13065 H 90.21581669923319 86.52163157718289 61.138900602654275 H 0.0 **** 0.06
13066 C 35.53305344777908 66.21649112255315 49.43371559567362 C 0.0 **** -0.24
13067 H 35.5542965665428 65.19249093836325 49.80746866087472 H 0.0 **** 0.06
13068 H 35.64209225735698 66.90901543540545 50.26845063665897 H 0.0 **** 0.06
13069 H 34.58306160389458 66.40033691975577 48.93056227636893 H 0.0 **** 0.06
13070 H 36.351687158020866 66.36256658045244 48.72993814588088 H 0.0 **** 0.06
13071 C 7.8416042142823414 20.77869767927197 87.99945665234614 C 0.0 **** -0.24
13072 H 7.6195264879504805 19.989550296502642 87.2820036698873 H 0.0 **** 0.06
13073 H 8.682697710685687 20.47746069457685 88.62300449356349 H 0.0 **** 0.06
13074 H 6.967674019575838 20.955246796519106 88.62689861662736 H 0.0 **** 0.06
13075 H 8.0955457964223 21.693813584232686 87.46407216883804 H 0.0 **** 0.06
13076 C 108.72822494201357 6.292055189709856 26.59256806027463 C 0.0 **** -0.24
13077 H 108.98236796513642 5.263374315232653 26.335651757114476 H 0.0 **** 0.06
13078 H 108.51338934435839 6.356948679776792 27.659893479334983 H 0.0 **** 0.06
13079 H 107.85003258136084 6.6005895323044115 26.02529413267223 H 0.0 **** 0.06
13080 H 109.56649684819811 6.944965575786796 26.349802341642828 H 0.0 **** 0.06
13081 C 114.47585656574586 59.05618647281829 100.05888477921312 C 0.0 **** -0.24
13082 H 115.55083490059873 59.13302844410699 99.89383056837622 H 0.0 **** 0.06
13083 H 114.04726651850095 58.360165764626835 99.33685722493743 H 0.0 **** 0.06
13084 H 114.01885172482463 60.03808846942895 99.9332104024582 H 0.0 **** 0.06
13085 H 114.2887171094826 58.69387355586202 101.06923327402285 H 0.0 **** 0.06
13086 C 77.81468512806362 48.05059698985587 1.7815897906073985 C 0.0 **** -0.24
13087 H 78.02115345862845 47.60501234471168 2.7542336442398323 H 0.0 **** 0.06
13088 H 77.10699434900499 47.42360880486554 1.2380655360129253 H 0.0 **** 0.06
13089 H 78.7417983054386 48.12899035122927 1.213879833555751 H 0.0 **** 0.06
13090 H 77.38836184315332 49.04387902078779 1.9200932079843085 H 0.0 **** 0.06
13091 C 76.76482092209278 56.31031498974315 5.295541712329168 C 0.0 **** -0.24
13092 H 76.33435151154583 56.9287315484255 6.082894229646286 H 0.0 **** 0.06
13093 H 76.27276202038809 56.532597863305256 4.347899157806978 H 0.0 **** 0.06
13094 H 76.6212511298902 55.25813835896824 5.541407569565308 H 0.0 **** 0.06
13095 H 77.83091902654746 56.52179218827354 5.2099658922981575 H 0.0 **** 0.06
13096 C 45.88384876267662 28.089041133262526 66.47913201393987 C 0.0 **** -0.24
13097 H 46.298749167062454 28.295833015368373 67.46619067498284 H 0.0 **** 0.06
13098 H 45.761287968372926 27.01367874312325 66.35514624410158 H 0.0 **** 0.06
13099 H 46.56240354503666 28.46901649163732 65.71483158205984 H 0.0 **** 0.06
13100 H 44.91600258854106 28.579793554556602 66.38210756236572 H 0.0 **** 0.06
13101 C 44.824406627010546 82.78637334095657 29.71552677320267 C 0.0 **** -0.24
13102 H 44.94238834613088 83.7957968115146 29.322089980399056 H 0.0 **** 0.06
13103 H 43.85410133336205 82.6977105353036 30.205016873936728 H 0.0 **** 0.06
13104 H 45.61532851877561 82.5829828423814 30.437015369670405 H 0.0 **** 0.06
13105 H 44.885262328144265 82.06771097251874 28.896968851125706 H 0.0 **** 0.06
13106 C 17.47869265083703 78.01548882576472 5.763371520227571 C 0.0 **** -0.24
13107 H 17.490256522156752 78.78066715326727 6.5391403848641865 H 0.0 **** 0.06
13108 H 18.474204998337495 77.92383872725557 5.3285354415328055 H 0.0 **** 0.06
13109 H 16.767317823402724 78.29642371813154 4.986761317880637 H 0.0 **** 0.06
13110 H 17.182991259451377 77.06102570440444 6.199048936632348 H 0.0 **** 0.06
13111 C 62.8071928388521 18.447385531906978 32.813457390421235 C 0.0 **** -0.24
13112 H 61.7411280408663 18.67119970639725 32.76649924850777 H 0.0 **** 0.06
13113 H 63.35393411922229 19.146545987468844 32.18062597351877 H 0.0 **** 0.06
13114 H 62.979886518166325 17.429204335290436 32.46525214987031 H 0.0 **** 0.06
13115 H 63.15208427156401 18.541894577564776 33.843795677155555 H 0.0 **** 0.06
13116 C 99.64584891757494 48.14969595285753 109.15502396846534 C 0.0 **** -0.24
13117 H 99.74661798066083 47.296641399901304 109.82598856353192 H 0.0 **** 0.06
13118 H 99.51732386925792 49.05959972943225 109.74148403586662 H 0.0 **** 0.06
13119 H 98.77717772746476 48.004527141483706 108.5125822497613 H 0.0 **** 0.06
13120 H 100.54262573160744 48.23611044328621 108.54115845354053 H 0.0 **** 0.06
13121 C 66.09762870086266 67.7830565057582 93.66485641716574 C 0.0 **** -0.24
13122 H 66.43571646656488 68.52064125526812 92.93732955318131 H 0.0 **** 0.06
13123 H 65.07641801553626 68.01463157905275 93.96855153277832 H 0.0 **** 0.06
13124 H 66.75151269276361 67.80864049803054 94.53688117673414 H 0.0 **** 0.06
13125 H 66.12820751508437 66.79033817822852 93.21698348825305 H 0.0 **** 0.06
13126 C 99.74331068016198 101.82117136144484 21.4316864288202 C 0.0 **** -0.24
13127 H 99.98097940380273 101.1639821488472 20.5951824640276 H 0.0 **** 0.06
13128 H 99.84287588684151 102.85999216141207 21.116456196169395 H 0.0 **** 0.06
13129 H 100.42858545156727 101.62363648605228 22.25554526572276 H 0.0 **** 0.06
13130 H 98.7191220325673 101.63692792209122 21.759166280695354 H 0.0 **** 0.06
13131 C 40.559825814687414 71.26705893489941 65.20731154638173 C 0.0 **** -0.24
13132 H 41.57480852414864 71.47843638690694 64.87133443830999 H 0.0 **** 0.06
13133 H 40.55892866535548 71.11084865866414 66.28682884879717 H 0.0 **** 0.06
13134 H 40.192996710657425 70.36811775107773 64.7101403258888 H 0.0 **** 0.06
13135 H 39.91210483954666 72.10761254157188 64.96029924090686 H 0.0 **** 0.06
13136 C 110.7792532557782 0.7498000359981347 47.66933002796094 C 0.0 **** -0.24
13137 H 111.77603053847295 0.8833798841853593 47.249396202401726 H 0.0 **** 0.06
13138 H 110.0337467579125 1.0828758913094134 46.94799554242746 H 0.0 **** 0.06
13139 H 110.68885517043051 1.3374455491998276 48.58361170127324 H 0.0 **** 0.06
13140 H 110.61964624152114 -0.303513134097642 47.8978729738954 H 0.0 **** 0.06
13141 C 77.44459992370105 111.87011403219037 12.039604205134822 C 0.0 **** -0.24
13142 H 77.6441253662716 111.2553917186608 12.9173769802494 H 0.0 **** 0.06
13143 H 76.42612939054209 111.6903087303076 11.694497225922134 H 0.0 **** 0.06
13144 H 78.14823690775705 111.61159291374283 11.247980038912374 H 0.0 **** 0.06
13145 H 77.5598861387283 112.92286317276937 12.299516421709939 H 0.0 **** 0.06
13146 C 68.35887157849501 33.740166554129814 0.6694923204807317 C 0.0 **** -0.24
13147 H 69.18604700461321 34.32332895028179 1.076060255830802 H 0.0 **** 0.06
13148 H 67.64570821458449 34.410162804240144 0.18712925538877734 H 0.0 **** 0.06
13149 H 67.86348204059465 33.20173245302817 1.4766848742958771 H 0.0 **** 0.06
13150 H 68.74107638211265 33.02885177918904 -0.06273561560432839 H 0.0 **** 0.06
13151 C 25.820561008734558 42.28547124916972 33.41726193624459 C 0.0 **** -0.24
13152 H 26.39867347193797 42.95134817112017 34.05856445052434 H 0.0 **** 0.06
13153 H 26.35315193563906 41.34121281051522 33.30188039879792 H 0.0 **** 0.06
13154 H 25.68644441146631 42.74857848397095 32.44035338503546 H 0.0 **** 0.06
13155 H 24.846540831864502 42.100570564564556 33.86979301042195 H 0.0 **** 0.06
13156 C 48.91786180226168 85.67120863152235 51.87298449065247 C 0.0 **** -0.24
13157 H 48.145721035564264 86.38241552896866 51.579184619652295 H 0.0 **** 0.06
13158 H 48.49743974403904 84.66500632312696 51.8861087579578 H 0.0 **** 0.06
13159 H 49.28585519863944 85.92504178080642 52.86633461538753 H 0.0 **** 0.06
13160 H 49.73985781437153 85.7124568592076 51.15913924244205 H 0.0 **** 0.06
13161 C 81.73801128309213 97.80576845609684 109.01372478671614 C 0.0 **** -0.24
13162 H 81.94839186993752 97.7986271378939 107.94460415241673 H 0.0 **** 0.06
13163 H 82.30716037066412 98.60289660068705 109.49120353770934 H 0.0 **** 0.06
13164 H 82.02343685022319 96.84641584848822 109.4466703407725 H 0.0 **** 0.06
13165 H 80.67327508002907 97.97386020460351 109.17299468277422 H 0.0 **** 0.06
13166 C 37.58420004965532 0.18145727501936904 48.0413113090535 C 0.0 **** -0.24
13167 H 37.73592029058838 1.0533896380994747 48.67771754671011 H 0.0 **** 0.06
13168 H 38.050335784909464 -0.6899463596434146 48.50118862721337 H 0.0 **** 0.06
13169 H 38.0343801025129 0.36301508465774646 47.064992360693736 H 0.0 **** 0.06
13170 H 36.51651942377626 0.002133620612937648 47.920232841201454 H 0.0 **** 0.06
13171 C 54.77293672650407 73.94876629303741 41.05351267943493 C 0.0 **** -0.24
13172 H 54.05319608058534 74.36957980334313 41.754863015291164 H 0.0 **** 0.06
13173 H 54.53990434511999 74.29025272254583 40.04507235923329 H 0.0 **** 0.06
13174 H 54.72091541420778 72.85961511717267 41.0899762394116 H 0.0 **** 0.06
13175 H 55.77783804968243 74.27318850058913 41.32384123912873 H 0.0 **** 0.06
13176 C 63.515972672020325 98.55274445221733 65.958592625341 C 0.0 **** -0.24
13177 H 62.45890035303256 98.81856184193384 65.96297346115432 H 0.0 **** 0.06
13178 H 63.69397907916857 97.76004506203171 66.6867550299142 H 0.0 **** 0.06
13179 H 64.11171407267312 99.42707133718167 66.22120385830172 H 0.0 **** 0.06
13180 H 63.800336269259844 98.20490364939724 64.9656207873629 H 0.0 **** 0.06
13181 C 10.591655851710286 41.46663024141981 62.246655947108536 C 0.0 **** -0.24
13182 H 9.691380556656558 42.0597097011713 62.08859563678715 H 0.0 **** 0.06
13183 H 11.390739582686361 41.83966283448632 61.60546184060951 H 0.0 **** 0.06
13184 H 10.386413107825689 40.42334384059518 62.002187141600785 H 0.0 **** 0.06
13185 H 10.897200445123133 41.54096890454218 63.289969508959246 H 0.0 **** 0.06
13186 C 24.93684470049203 51.10862320819284 53.53410991459134 C 0.0 **** -0.24
13187 H 24.118554383462026 50.921502360824135 54.22862315752093 H 0.0 **** 0.06
13188 H 25.67244181975252 50.30799889635116 53.61311984293303 H 0.0 **** 0.06
13189 H 25.408406642774708 52.060828681494755 53.776209092280965 H 0.0 **** 0.06
13190 H 24.54819389412836 51.14531768832011 52.516338309579055 H 0.0 **** 0.06
13191 C 39.78066252836575 56.556444259429945 31.343973879610644 C 0.0 **** -0.24
13192 H 40.59611061511421 55.98256799014617 31.784583036829872 H 0.0 **** 0.06
13193 H 40.17343560466759 57.20580818115847 30.561240334415693 H 0.0 **** 0.06
13194 H 39.305825134230105 57.163839119659734 32.11539852207834 H 0.0 **** 0.06
13195 H 39.045446969246115 55.87406143477633 30.91699642062732 H 0.0 **** 0.06
13196 C 90.30096635685325 52.49893417640433 102.65047804756765 C 0.0 **** -0.24
13197 H 90.5763882009409 51.45941774964633 102.82919958638826 H 0.0 **** 0.06
13198 H 91.13853573954185 53.02247338247675 102.1878796452277 H 0.0 **** 0.06
13199 H 90.05324225735743 52.976388911917375 103.59876742282898 H 0.0 **** 0.06
13200 H 89.43755676944107 52.53679694310286 101.98712128552205 H 0.0 **** 0.06
13201 C 113.91903974183435 54.48179934532459 8.013496157741372 C 0.0 **** -0.24
13202 H 113.01046080782288 54.62217078175627 7.427954404817967 H 0.0 **** 0.06
13203 H 114.21566947322714 53.43367618389402 7.979049314006829 H 0.0 **** 0.06
13204 H 113.73329380151227 54.774419053865245 9.047489477292629 H 0.0 **** 0.06
13205 H 114.71645865110003 55.09972531123822 7.599834954566575 H 0.0 **** 0.06
13206 C 28.04955169766282 64.65746607553601 56.52513938536796 C 0.0 **** -0.24
13207 H 27.652442137993035 63.921083568381285 55.82633198932742 H 0.0 **** 0.06
13208 H 29.071811009316832 64.91195519036171 56.241916389746656 H 0.0 **** 0.06
13209 H 28.04462076246631 64.24139364919313 57.532530759146574 H 0.0 **** 0.06
13210 H 27.43125100748432 65.55409444491164 56.49904876773113 H 0.0 **** 0.06
13211 C 44.91227519404927 47.39026019018689 56.228035855267514 C 0.0 **** -0.24
13212 H 44.92610502885759 47.15519583046665 57.29216433956936 H 0.0 **** 0.06
13213 H 44.69633036707637 48.44943126768325 56.091843480416706 H 0.0 **** 0.06
13214 H 44.14172614443345 46.7964386030917 55.73519904942996 H 0.0 **** 0.06
13215 H 45.883851924608564 47.15731511623298 55.79207458962332 H 0.0 **** 0.06
13216 C 22.0060484555311 62.26169818556636 116.72077775582505 C 0.0 **** -0.24
13217 H 21.342032499191106 62.34651783581768 115.85972811492002 H 0.0 **** 0.06
13218 H 22.067232070577646 63.22609561505507 117.22671473390017 H 0.0 **** 0.06
13219 H 22.999043224770787 61.963007692337726 116.3858967291703 H 0.0 **** 0.06
13220 H 21.613178928851156 61.5143699916473 117.40957019420367 H 0.0 **** 0.06
13221 C 5.521641196296798 68.49592366743494 16.805588839593558 C 0.0 **** -0.24
13222 H 4.891103002648023 67.60719043365015 16.77911636036333 H 0.0 **** 0.06
13223 H 5.61115958686139 68.84723101131706 17.833588635135296 H 0.0 **** 0.06
13224 H 5.072094439753798 69.27809081246687 16.19175955967522 H 0.0 **** 0.06
13225 H 6.5103245971436365 68.25255342783038 16.41713292607465 H 0.0 **** 0.06
13226 C 43.247290815635466 77.410171517214 93.1855062614182 C 0.0 **** -0.24
13227 H 44.24812115858664 77.15692317929211 92.83509236712942 H 0.0 **** 0.06
13228 H 42.658930545809255 76.49813589145668 93.29302955585109 H 0.0 **** 0.06
13229 H 42.76699070670904 78.07074204491016 92.46519992399095 H 0.0 **** 0.06
13230 H 43.316756493629995 77.91297687731878 94.1503416258463 H 0.0 **** 0.06
13231 C 13.09532419601625 94.94642759043381 83.23691913478245 C 0.0 **** -0.24
13232 H 12.799958486893257 95.89884444702349 82.79850026622154 H 0.0 **** 0.06
13233 H 13.28067017042985 94.22273749716024 82.44302651101276 H 0.0 **** 0.06
13234 H 12.297279813213155 94.58106066919623 83.88313514597229 H 0.0 **** 0.06
13235 H 14.003906609886364 95.08295740171113 83.82432584000918 H 0.0 **** 0.06
13236 C 85.37824547719782 58.29325670887968 12.476884564076101 C 0.0 **** -0.24
13237 H 84.49189194136363 57.720485104232296 12.748363886303991 H 0.0 **** 0.06
13238 H 85.91571084999742 57.77572218765306 11.68276623970462 H 0.0 **** 0.06
13239 H 86.02574104766202 58.39640576677547 13.348217325943722 H 0.0 **** 0.06
13240 H 85.07890970945988 59.28248933676187 12.128593088575656 H 0.0 **** 0.06
13241 C 78.9169865922018 69.66543913155795 53.88460851239075 C 0.0 **** -0.24
13242 H 79.02679440149853 68.85568539721024 54.60577706754234 H 0.0 **** 0.06
13243 H 77.89280862236049 69.68200320599342 53.51050539203726 H 0.0 **** 0.06
13244 H 79.60483061446647 69.50695832532742 53.05404400602452 H 0.0 **** 0.06
13245 H 79.14327119223202 70.6154105469844 54.36787293510114 H 0.0 **** 0.06
13246 C 7.645145130795925 37.42798798066903 69.16807894954462 C 0.0 **** -0.24
13247 H 7.474295861602172 36.46645573400457 68.6835366345091 H 0.0 **** 0.06
13248 H 8.514416724856005 37.91001647397944 68.71950626145815 H 0.0 **** 0.06
13249 H 7.824443126820739 37.272014621936705 70.23095918467982 H 0.0 **** 0.06
13250 H 6.768212852370567 38.06127931418783 69.03538077126154 H 0.0 **** 0.06
13251 C 17.100955040286635 34.64886100571175 83.50938487306789 C 0.0 **** -0.24
13252 H 17.89443334994624 33.921056053733366 83.33495384383576 H 0.0 **** 0.06
13253 H 17.50918708656195 35.50902568611059 84.04159571656146 H 0.0 **** 0.06
13254 H 16.313917466088895 34.19060359066526 84.10702345650358 H 0.0 **** 0.06
13255 H 16.690149576259472 34.97345709010676 82.55337429954389 H 0.0 **** 0.06
13256 C 35.870167046201146 66.89972104685464 53.56879663849301 C 0.0 **** -0.24
13257 H 36.77904613559309 67.17998043270052 54.10221626991617 H 0.0 **** 0.06
13258 H 35.34336640859948 66.1271316087813 54.1285051247211 H 0.0 **** 0.06
13259 H 36.13245177252796 66.51808491034541 52.58178773412075 H 0.0 **** 0.06
13260 H 35.22782453058616 67.77355417340263 53.46129917784725 H 0.0 **** 0.06
13261 C 22.201166330234543 24.319348649980554 2.9895044501902532 C 0.0 **** -0.24
13262 H 21.967191485429623 24.395635936130446 4.0512256803697255 H 0.0 **** 0.06
13263 H 23.249137277289265 24.57585483393592 2.830355116542023 H 0.0 **** 0.06
13264 H 21.56991987320714 25.007357279234753 2.4281668212563545 H 0.0 **** 0.06
13265 H 22.020021433464194 23.29986122035899 2.6491048778282504 H 0.0 **** 0.06
13266 C 82.72710582253177 114.48424548896999 51.53348339966294 C 0.0 **** -0.24
13267 H 83.39236875377762 114.95737209692254 52.25501881014594 H 0.0 **** 0.06
13268 H 83.29063514281228 114.21999896877482 50.63785706555075 H 0.0 **** 0.06
13269 H 81.92809816807079 115.17685794507315 51.26818782389796 H 0.0 **** 0.06
13270 H 82.29714463161247 113.58300524758529 51.9714895823646 H 0.0 **** 0.06
13271 C 5.669500541115127 115.72699265735383 95.49549788047182 C 0.0 **** -0.24
13272 H 5.011441803093135 116.59127870628572 95.58953687798353 H 0.0 **** 0.06
13273 H 6.080544835330002 115.47612424657729 96.47360708819957 H 0.0 **** 0.06
13274 H 6.481736057835576 115.96295918098156 94.80821030519036 H 0.0 **** 0.06
13275 H 5.102291896825349 114.87989947948265 95.11153253440006 H 0.0 **** 0.06
13276 C 71.56600440364085 3.01171375507222 43.17392368175415 C 0.0 **** -0.24
13277 H 71.35427936193076 2.001847398771643 42.822774986324106 H 0.0 **** 0.06
13278 H 72.43501239809001 2.9935505561325204 43.83185770982047 H 0.0 **** 0.06
13279 H 70.70395618923271 3.394641303864004 43.72108946518031 H 0.0 **** 0.06
13280 H 71.76935113951112 3.658526454446937 42.31972436311361 H 0.0 **** 0.06
13281 C 45.06978358977358 43.31292043698929 57.68116791790408 C 0.0 **** -0.24
13282 H 45.67625583978216 43.34684877250831 56.775294677185286 H 0.0 **** 0.06
13283 H 45.62033755193656 43.76930640249333 58.503546861845734 H 0.0 **** 0.06
13284 H 44.84121525540803 42.27608112930244 57.92682968609387 H 0.0 **** 0.06
13285 H 44.141312989028535 43.8602545195688 57.5169158543157 H 0.0 **** 0.06
13286 C 11.572368656989369 20.86634859074817 73.94727832937772 C 0.0 **** -0.24
13287 H 11.028649036036654 21.75187356320683 73.61930665591521 H 0.0 **** 0.06
13288 H 11.049178308741602 20.411179603651686 74.789470789229 H 0.0 **** 0.06
13289 H 12.578564926395671 21.15041306558225 74.25617868939045 H 0.0 **** 0.06
13290 H 11.631386439888189 20.151991934086322 73.12700682041671 H 0.0 **** 0.06
13291 C 50.34929627577796 71.14426443207543 11.91342838457905 C 0.0 **** -0.24
13292 H 51.034800793745234 70.64010747109933 11.232220426824739 H 0.0 **** 0.06
13293 H 50.86085796602097 71.98072439532808 12.388983111193966 H 0.0 **** 0.06
13294 H 50.01404285643636 70.44123471601256 12.676015647268912 H 0.0 **** 0.06
13295 H 49.48863367797799 71.51253523336416 11.355690600137905 H 0.0 **** 0.06
13296 C 74.49585569522179 107.9384118932106 41.92106101219372 C 0.0 **** -0.24
13297 H 75.31607108764143 107.55432108396445 42.527880548104235 H 0.0 **** 0.06
13298 H 73.55155916956642 107.54274977946204 42.29521410431744 H 0.0 **** 0.06
13299 H 74.63522082913391 107.62880826989672 40.88507213815478 H 0.0 **** 0.06
13300 H 74.48206766696018 109.02703226551793 41.97718195117568 H 0.0 **** 0.06
13301 C 56.50173913722694 7.890808340714514 41.3448551149913 C 0.0 **** -0.24
13302 H 55.94576217267424 7.405924971454695 42.14806976395168 H 0.0 **** 0.06
13303 H 56.590242494899776 7.2057097645162 40.5012064261214 H 0.0 **** 0.06
13304 H 57.495769536757045 8.159735793542126 41.70145646810754 H 0.0 **** 0.06
13305 H 55.97242273184174 8.790031066898791 41.028860451111264 H 0.0 **** 0.06
13306 C 8.691304394917722 56.89701613019821 6.557716419830356 C 0.0 **** -0.24
13307 H 8.169710750282377 57.44495621317549 5.772391165753959 H 0.0 **** 0.06
13308 H 8.752553918991566 55.84289898636615 6.285901135992546 H 0.0 **** 0.06
13309 H 8.145862930300154 57.00035014645334 7.495878808979953 H 0.0 **** 0.06
13310 H 9.696785363713275 57.30107103753596 6.676032213960241 H 0.0 **** 0.06
13311 C 52.46750995722026 62.52360106033484 81.59189312319364 C 0.0 **** -0.24
13312 H 53.38660170280079 62.45079605434171 82.17295743481861 H 0.0 **** 0.06
13313 H 52.0312671282419 63.514394636947486 81.7270795608841 H 0.0 **** 0.06
13314 H 51.76177258011916 61.76681953027605 81.93099826993429 H 0.0 **** 0.06
13315 H 52.69164338928002 62.36685547617037 80.53727663888654 H 0.0 **** 0.06
13316 C 82.48927904021406 101.66456308403676 44.725813174422996 C 0.0 **** -0.24
13317 H 82.05368688658234 101.97268020461442 45.676696092903626 H 0.0 **** 0.06
13318 H 83.51342341596177 101.32831964176796 44.88826816274293 H 0.0 **** 0.06
13319 H 82.48898320518569 102.50940719715734 44.03626377930081 H 0.0 **** 0.06
13320 H 81.90047569023042 100.85040561160409 44.30348962713791 H 0.0 **** 0.06
13321 C 50.949986948148535 89.33506616273701 37.87824996977395 C 0.0 **** -0.24
13322 H 51.94401302022531 89.75759591001238 37.73672378280452 H 0.0 **** 0.06
13323 H 50.2034972037567 90.12456268403761 37.78605818756489 H 0.0 **** 0.06
13324 H 50.88442455438407 88.88560068172251 38.86937173342193 H 0.0 **** 0.06
13325 H 50.768013014228174 88.57250537517518 37.12084617530434 H 0.0 **** 0.06
13326 C 15.702515453017622 12.288707371103243 68.26952484085717 C 0.0 **** -0.24
13327 H 15.756231433073456 11.20708529715381 68.38948814578603 H 0.0 **** 0.06
13328 H 14.689988138716796 12.572255050448348 67.97925562265371 H 0.0 **** 0.06
13329 H 16.40350930210721 12.602913268462856 67.4959427387628 H 0.0 **** 0.06
13330 H 15.9602396287804 12.77281489510409 69.21119149407238 H 0.0 **** 0.06
13331 C 49.12172946703032 82.50942885200595 20.656771416116054 C 0.0 **** -0.24
13332 H 48.52321038922395 81.69310408625842 20.251659342913005 H 0.0 **** 0.06
13333 H 48.71185593340806 83.46216164278604 20.320078772078567 H 0.0 **** 0.06
13334 H 50.14975047654525 82.41276321336437 20.309347392307462 H 0.0 **** 0.06
13335 H 49.1001992279505 82.46907721425089 21.745890403760928 H 0.0 **** 0.06
13336 C 8.234192394476821 77.00479085257174 5.080998407803094 C 0.0 **** -0.24
13337 H 8.609489752636435 77.25198255509576 6.073473119822722 H 0.0 **** 0.06
13338 H 7.27278044208515 76.49849641185764 5.171723307325323 H 0.0 **** 0.06
13339 H 8.943597026955999 76.34917328766309 4.5769095380638305 H 0.0 **** 0.06
13340 H 8.11002542244755 77.91926895033279 4.501472477168392 H 0.0 **** 0.06
13341 C 35.91101215484599 50.07994619151634 71.37377973173162 C 0.0 **** -0.24
13342 H 36.71883308232944 50.78478825106481 71.56842026372794 H 0.0 **** 0.06
13343 H 35.0094521479262 50.40783275669389 71.89042842267611 H 0.0 **** 0.06
13344 H 36.196780818387765 49.09064824064927 71.73442351193412 H 0.0 **** 0.06
13345 H 35.71962046010489 50.03370004312802 70.30103019764425 H 0.0 **** 0.06
13346 C 56.932845041384205 39.285115444079025 73.02145628299391 C 0.0 **** -0.24
13347 H 56.11807218431533 39.74034559063173 72.45932052419491 H 0.0 **** 0.06
13348 H 57.885580334462595 39.56596082248339 72.57097500497224 H 0.0 **** 0.06
13349 H 56.82700233175195 38.20033960356528 73.00044014126343 H 0.0 **** 0.06
13350 H 56.901807702612295 39.63303457592886 74.05398566661938 H 0.0 **** 0.06
13351 C 32.92610534216774 113.29203101263893 86.5883481040135 C 0.0 **** -0.24
13352 H 32.543437333676124 112.62933516969323 85.81184220772661 H 0.0 **** 0.06
13353 H 33.841220190275195 113.77014103940934 86.23963252542902 H 0.0 **** 0.06
13354 H 33.13831323372436 112.71317853528507 87.48742296461921 H 0.0 **** 0.06
13355 H 32.18077614911094 114.05422788851457 86.81455874542351 H 0.0 **** 0.06
13356 C 61.96639391460183 82.64202492731226 34.27031760710194 C 0.0 **** -0.24
13357 H 62.70869874594337 82.73511366027432 33.47727724304285 H 0.0 **** 0.06
13358 H 61.49969081316534 81.65821949549263 34.216912757800046 H 0.0 **** 0.06
13359 H 61.204930868356406 83.41291664774658 34.146709258096536 H 0.0 **** 0.06
13360 H 62.45157524214917 82.76336016074126 35.23856642755868 H 0.0 **** 0.06
13361 C 115.89114977123715 7.315043442376222 110.38046480628336 C 0.0 **** -0.24
13362 H 114.88679669010311 6.925337581676445 110.54393391739924 H 0.0 **** 0.06
13363 H 116.25044801581382 6.993318885122804 109.40286976891011 H 0.0 **** 0.06
13364 H 116.55780140351801 6.937266865642641 111.15560764328939 H 0.0 **** 0.06
13365 H 115.86912796703712 8.403525031916587 110.41890640387402 H 0.0 **** 0.06
13366 C 28.557568268705523 14.980592171468317 7.4797037742166665 C 0.0 **** -0.24
13367 H 27.655591847568118 15.293597021831374 6.954839599820019 H 0.0 **** 0.06
13368 H 29.151518796596932 14.33778197671549 6.830316551493244 H 0.0 **** 0.06
13369 H 28.281154864547993 14.43162391078451 8.38082948268481 H 0.0 **** 0.06
13370 H 29.141578820697518 15.859096268698607 7.754485879797887 H 0.0 **** 0.06
13371 C 37.78080123919932 59.85809098521207 86.2382610064272 C 0.0 **** -0.24
13372 H 37.59749033886919 60.91846744834913 86.0634329125007 H 0.0 **** 0.06
13373 H 38.83429467499826 59.638782919148014 86.06575449938617 H 0.0 **** 0.06
13374 H 37.1694550757814 59.267043315339976 85.55594691706574 H 0.0 **** 0.06
13375 H 37.520433320168024 59.609699564165226 87.26790575305637 H 0.0 **** 0.06
13376 C 68.3377209951052 57.737411554150555 91.37331668088513 C 0.0 **** -0.24
13377 H 67.4594347832122 57.10376780432969 91.24095721754014 H 0.0 **** 0.06
13378 H 68.92624963910788 57.7370976779915 90.45531833715285 H 0.0 **** 0.06
13379 H 68.94214214557732 57.35293075638299 92.19459588311628 H 0.0 **** 0.06
13380 H 68.01914494842993 58.75462258549385 91.60196271267046 H 0.0 **** 0.06
13381 C 19.79709143217272 49.08505617413911 106.71444429489082 C 0.0 **** -0.24
13382 H 19.750654444329513 49.686182466863414 105.80606728952495 H 0.0 **** 0.06
13383 H 20.432796903770793 49.58254056508403 107.4465254158325 H 0.0 **** 0.06
13384 H 20.210160349325918 48.10466285490014 106.47908941068437 H 0.0 **** 0.06
13385 H 18.793590902831568 48.96890533537271 107.12356973175542 H 0.0 **** 0.06
13386 C 67.11779583789234 36.927430809898624 101.56182646077951 C 0.0 **** -0.24
13387 H 66.31270422157377 36.57746637395144 100.91618932359177 H 0.0 **** 0.06
13388 H 66.96835792220872 37.98344482550493 101.78929456722162 H 0.0 **** 0.06
13389 H 68.07331435397094 36.79670037400513 101.05367107418203 H 0.0 **** 0.06
13390 H 67.11729002875768 36.352092063240605 102.487275540615 H 0.0 **** 0.06
13391 C 50.18700119407253 101.6746798690769 104.64608040935983 C 0.0 **** -0.24
13392 H 50.707303749242996 102.60526260377551 104.87491888114843 H 0.0 **** 0.06
13393 H 50.738756208710306 101.12850619106055 103.88134996627335 H 0.0 **** 0.06
13394 H 49.1845142795282 101.89994747032918 104.28060602091398 H 0.0 **** 0.06
13395 H 50.1162273562763 101.06743936871518 105.54871877952968 H 0.0 **** 0.06
13396 C 68.42724430473018 75.13241109034095 114.2363105477095 C 0.0 **** -0.24
13397 H 69.24710988696856 75.7935369236144 113.953676357166 H 0.0 **** 0.06
13398 H 68.63714587913248 74.68864075574476 115.20857804153299 H 0.0 **** 0.06
13399 H 68.32449621733724 74.34370084771967 113.49099588280465 H 0.0 **** 0.06
13400 H 67.50147324905578 75.70549005853229 114.28965308626144 H 0.0 **** 0.06
13401 C 16.846962404612412 111.80335906915121 20.899587833367093 C 0.0 **** -0.24
13402 H 17.464675342857632 112.11911796764895 21.74066276626121 H 0.0 **** 0.06
13403 H 17.415827269409235 111.90006960698594 19.974948015873508 H 0.0 **** 0.06
13404 H 15.958156485485347 112.4322140223511 20.846263716648508 H 0.0 **** 0.06
13405 H 16.54894876212373 110.7642572319545 21.036522705780925 H 0.0 **** 0.06
13406 C 7.636768951527429 13.298941980044134 19.126981556766424 C 0.0 **** -0.24
13407 H 6.812457946821894 13.709503677792895 18.5445123475248 H 0.0 **** 0.06
13408 H 7.39752319493914 13.362109064070069 20.189267508993737 H 0.0 **** 0.06
13409 H 8.54373788690836 13.869442295271966 18.92446794658622 H 0.0 **** 0.06
13410 H 7.793274178738045 12.25710079402765 18.850218245112643 H 0.0 **** 0.06
13411 C 78.20750024893238 45.22201743544244 88.21547979968909 C 0.0 **** -0.24
13412 H 77.56225553664308 45.43946860443623 87.36398508536269 H 0.0 **** 0.06
13413 H 78.95171732765766 44.479903281103674 87.92576008728648 H 0.0 **** 0.06
13414 H 77.60528963520014 44.832847855172076 89.03655920522479 H 0.0 **** 0.06
13415 H 78.7086084701117 46.135495528085755 88.53445823714029 H 0.0 **** 0.06
13416 C 25.70244587724943 93.86236068488319 2.015473617075145 C 0.0 **** -0.24
13417 H 25.911843922950595 94.42538601964725 1.106453902465148 H 0.0 **** 0.06
13418 H 25.995521596477488 94.45293490051117 2.8836865546386434 H 0.0 **** 0.06
13419 H 26.265788548075932 92.9290957705162 2.003489371467026 H 0.0 **** 0.06
13420 H 24.636193561644916 93.64258088234646 2.069490316953818 H 0.0 **** 0.06
13421 C 98.37500125476748 33.39652403424404 83.1934438613439 C 0.0 **** -0.24
13422 H 98.50991275927123 33.8145497798161 84.19111431711838 H 0.0 **** 0.06
13423 H 98.79630275634659 34.07856147718667 82.45404680257931 H 0.0 **** 0.06
13424 H 97.3118177092716 33.258389719502155 82.99716697281349 H 0.0 **** 0.06
13425 H 98.88368523627611 32.43448844733888 83.13167735860728 H 0.0 **** 0.06
13426 C 95.61405739681007 44.08748893979933 17.130602378328035 C 0.0 **** -0.24
13427 H 95.5834263876537 43.369552489031975 16.310931733086036 H 0.0 **** 0.06
13428 H 95.90713833805762 43.577898138090404 18.049181615721096 H 0.0 **** 0.06
13429 H 94.62725418245796 44.53142612788852 17.260414287572047 H 0.0 **** 0.06
13430 H 96.33740951928519 44.86940563824467 16.900787429237226 H 0.0 **** 0.06
13431 C 81.35957231934526 85.02185905917142 42.394979729000966 C 0.0 **** -0.24
13432 H 80.60993727465379 84.2372521916096 42.492520842249576 H 0.0 **** 0.06
13433 H 82.05145344495008 84.7653558033042 41.59291954726399 H 0.0 **** 0.06
13434 H 81.90840162182045 85.11913093037128 43.33258286582452 H 0.0 **** 0.06
13435 H 80.86767639339766 85.96685762548438 42.163303003316 H 0.0 **** 0.06
13436 C 93.98018778326224 6.60924864134155 29.82167518744322 C 0.0 **** -0.24
13437 H 94.3616538425265 7.385630512754531 29.15800596428388 H 0.0 **** 0.06
13438 H 93.16128753782183 7.012645793493354 30.418741507326736 H 0.0 **** 0.06
13439 H 94.77844507169442 6.268714487468737 30.48020588798513 H 0.0 **** 0.06
13440 H 93.61688245919291 5.770429151357089 29.226482636920828 H 0.0 **** 0.06
13441 C 1.8398551594860066 60.74206716925755 43.82113633750848 C 0.0 **** -0.24
13442 H 2.4325098842421937 59.86343660715025 44.07640618444012 H 0.0 **** 0.06
13443 H 1.126390663459489 60.48367508633069 43.03815297006275 H 0.0 **** 0.06
13444 H 2.4988416059711653 61.534181203416296 43.46688059173484 H 0.0 **** 0.06
13445 H 1.3007888859517038 61.08511464827572 44.70528398059751 H 0.0 **** 0.06
13446 C 103.22743443783023 32.50538548636871 49.28521413818481 C 0.0 **** -0.24
13447 H 103.38707459892535 31.6056859766017 49.879777672667785 H 0.0 **** 0.06
13448 H 104.06906193965077 32.64594279695917 48.60676828764275 H 0.0 **** 0.06
13449 H 103.14410858973216 33.367738640463216 49.946139070534 H 0.0 **** 0.06
13450 H 102.3083545656709 32.398904985151084 48.70829637813608 H 0.0 **** 0.06
13451 C 103.66508643940793 41.25871980527688 68.96044602708844 C 0.0 **** -0.24
13452 H 103.73145175320346 40.933557572545084 67.9216446991093 H 0.0 **** 0.06
13453 H 103.00170725462894 42.12075281957158 69.02897405922926 H 0.0 **** 0.06
13454 H 104.65733757572039 41.53288031990502 69.31825972152282 H 0.0 **** 0.06
13455 H 103.27027707367824 40.44640550328694 69.57042142591382 H 0.0 **** 0.06
13456 C 83.51739186484596 116.74550251642304 5.341796147267473 C 0.0 **** -0.24
13457 H 83.79010728668035 117.06368724087665 6.348149345780087 H 0.0 **** 0.06
13458 H 82.84040126448366 117.47788565414015 4.900150669948175 H 0.0 **** 0.06
13459 H 83.02231524566338 115.77634974424089 5.389784967900482 H 0.0 **** 0.06
13460 H 84.41645874941565 116.66579710368154 4.730512446006514 H 0.0 **** 0.06
13461 C 65.12399659980764 62.68892061095773 34.355770267502805 C 0.0 **** -0.24
13462 H 65.9025701851414 61.939286263048025 34.499528822475824 H 0.0 **** 0.06
13463 H 64.34258854269393 62.54801500309207 35.10183391287013 H 0.0 **** 0.06
13464 H 64.69776988072428 62.58237222431452 33.35828934839378 H 0.0 **** 0.06
13465 H 65.55437737994183 63.68470311239221 34.462182489689226 H 0.0 **** 0.06
13466 C 86.24161897466644 48.91556060777401 110.15426794328968 C 0.0 **** -0.24
13467 H 85.7404710733214 49.4150932769212 110.98367489254363 H 0.0 **** 0.06
13468 H 87.26890257816726 49.27274459592891 110.08315568732347 H 0.0 **** 0.06
13469 H 85.7142345387671 49.13508582540081 109.22630659587384 H 0.0 **** 0.06
13470 H 86.2417380123687 47.83883451903645 110.32667135577199 H 0.0 **** 0.06
13471 C 11.697093432621443 77.92696815779931 108.38740187703937 C 0.0 **** -0.24
13472 H 10.94957430493966 78.63145034494158 108.75182190149525 H 0.0 **** 0.06
13473 H 11.198923653776262 77.04424929155573 107.98523487437103 H 0.0 **** 0.06
13474 H 12.348437671063863 77.63283467645499 109.21011514150278 H 0.0 **** 0.06
13475 H 12.290098697485604 78.39872601225449 107.6041182585029 H 0.0 **** 0.06
13476 C 18.60031103742969 90.40571163466626 91.84744322281989 C 0.0 **** -0.24
13477 H 17.939649029899755 89.54767509421185 91.97345115902559 H 0.0 **** 0.06
13478 H 19.211446965083013 90.26506705000313 90.95564337339204 H 0.0 **** 0.06
13479 H 19.24618873212728 90.4988542799515 92.7199249451287 H 0.0 **** 0.06
13480 H 18.002599097719553 91.31077466768741 91.73877255159144 H 0.0 **** 0.06
13481 C 110.38015317618954 86.75723122287783 115.66215634078952 C 0.0 **** -0.24
13482 H 109.63779467155757 87.31711709372175 115.09277978212513 H 0.0 **** 0.06
13483 H 110.86066152426105 87.42040193546046 116.3817001667781 H 0.0 **** 0.06
13484 H 111.13030487964997 86.35383950710349 114.98186337497609 H 0.0 **** 0.06
13485 H 109.89158717641544 85.9391112817217 116.1903995900498 H 0.0 **** 0.06
13486 C 67.87492875278127 71.67789712836532 6.335021654821588 C 0.0 **** -0.24
13487 H 67.7865225889363 70.97176355938274 5.50901334090949 H 0.0 **** 0.06
13488 H 67.21885853924346 71.3680225366343 7.149011600352338 H 0.0 **** 0.06
13489 H 67.5860056358404 72.67155905122999 5.994517169854873 H 0.0 **** 0.06
13490 H 68.90554675956614 71.69858723420913 6.6863111183482715 H 0.0 **** 0.06
13491 C 57.966336005493986 90.67999377022409 93.20446930422543 C 0.0 **** -0.24
13492 H 58.20483534837268 89.63563859783903 93.00477387598332 H 0.0 **** 0.06
13493 H 58.40718030514765 91.30819177868841 92.43017636591088 H 0.0 **** 0.06
13494 H 58.36804878881759 90.96495597243694 94.17680738503651 H 0.0 **** 0.06
13495 H 56.88329129521779 90.81117592699411 93.20633590755685 H 0.0 **** 0.06
13496 C 35.75078231577186 64.68950876864906 106.66901323054282 C 0.0 **** -0.24
13497 H 35.19453746809944 65.61998856799221 106.78674612070887 H 0.0 **** 0.06
13498 H 36.380813013530144 64.75257921458888 105.78203556593843 H 0.0 **** 0.06
13499 H 35.051243407679294 63.86053065796446 106.56048403162856 H 0.0 **** 0.06
13500 H 36.3740440865019 64.52585080669434 107.54818659609708 H 0.0 **** 0.06
13501 C 91.51250944154364 77.69740852396103 114.25417582515232 C 0.0 **** -0.24
13502 H 92.42177334235322 78.26652655409487 114.06204628337238 H 0.0 **** 0.06
13503 H 91.36029368530856 77.60819083920637 115.33003481338062 H 0.0 **** 0.06
13504 H 91.60652595600104 76.70383374269295 113.81703058884447 H 0.0 **** 0.06
13505 H 90.66094286539504 78.21197660818063 113.80856608305555 H 0.0 **** 0.06
13506 C 73.97948779135464 29.52269595387859 47.33747249690089 C 0.0 **** -0.24
13507 H 73.30814657488708 28.675232392394086 47.47857348544022 H 0.0 **** 0.06
13508 H 74.73949231572064 29.26500477821194 46.60020977902212 H 0.0 **** 0.06
13509 H 74.45955679788813 29.767199634514462 48.285326229092846 H 0.0 **** 0.06
13510 H 73.40898467485977 30.38288695136017 46.98706614407422 H 0.0 **** 0.06
13511 C 71.37581678707437 17.984827127669263 111.57710126567778 C 0.0 **** -0.24
13512 H 71.50891216318135 17.31813258981967 112.42870148858671 H 0.0 **** 0.06
13513 H 72.30586475371462 18.03929764628171 111.0099233418443 H 0.0 **** 0.06
13514 H 71.10956908497448 18.98006823538026 111.93410589733695 H 0.0 **** 0.06
13515 H 70.58062936992539 17.602834883589765 110.9370998224898 H 0.0 **** 0.06
13516 C 65.64953847375807 112.68950683251009 108.09871414654762 C 0.0 **** -0.24
13517 H 65.29992008620545 113.71883902674836 108.17627807628173 H 0.0 **** 0.06
13518 H 66.30638415292944 112.46485176635076 108.93905385129705 H 0.0 **** 0.06
13519 H 66.19632590798602 112.56111811770106 107.16497608909381 H 0.0 **** 0.06
13520 H 64.79376540884968 112.0134404525908 108.11591210726414 H 0.0 **** 0.06
13521 C 106.183162161572 96.73183486258867 62.05802029103779 C 0.0 **** -0.24
13522 H 106.8703979917035 97.52400579891523 62.35597685821733 H 0.0 **** 0.06
13523 H 106.6409491932121 96.1325205152757 61.27078758460897 H 0.0 **** 0.06
13524 H 105.25761932821604 97.1734087262927 61.68787304711924 H 0.0 **** 0.06
13525 H 105.9660430336217 96.09804592150317 62.91756598576643 H 0.0 **** 0.06
13526 C 34.206386616646 54.8796584226947 95.44900383009792 C 0.0 **** -0.24
13527 H 34.90223208467802 54.040566442126504 95.44216929715691 H 0.0 **** 0.06
13528 H 34.43090713982352 55.530669350043205 96.2937601600926 H 0.0 **** 0.06
13529 H 33.18639451912256 54.50581540052996 95.53808513914635 H 0.0 **** 0.06
13530 H 34.306917860803225 55.44153097414732 94.51995662003151 H 0.0 **** 0.06
13531 C 106.2424133185277 63.80778646898062 98.73128057268468 C 0.0 **** -0.24
13532 H 106.57677567527745 63.21040320496604 99.5794875147418 H 0.0 **** 0.06
13533 H 107.08038476024481 63.98120251727761 98.05598751539932 H 0.0 **** 0.06
13534 H 105.85908707011225 64.76294862546746 99.08923191960068 H 0.0 **** 0.06
13535 H 105.4529256353718 63.27385690540251 98.20155192920109 H 0.0 **** 0.06
13536 C 16.387537880874593 55.43973706708448 72.1151597485603 C 0.0 **** -0.24
13537 H 16.13107633992316 54.69475937702978 71.36222837087575 H 0.0 **** 0.06
13538 H 16.825347581192897 54.944453301837854 72.9819784368087 H 0.0 **** 0.06
13539 H 15.487062064662311 55.9743319473244 72.41795109086968 H 0.0 **** 0.06
13540 H 17.105703607804305 56.14554380923201 71.69824635737385 H 0.0 **** 0.06
13541 C 33.41006813752378 111.29342180205867 71.99535671245587 C 0.0 **** -0.24
13542 H 32.46021875375891 111.08990687746294 71.49970475937579 H 0.0 **** 0.06
13543 H 34.17302817843388 110.61700803624326 71.60919690485434 H 0.0 **** 0.06
13544 H 33.29905704480021 111.14245217089692 73.06879820214678 H 0.0 **** 0.06
13545 H 33.706472172069255 112.3251995411286 71.80199847046913 H 0.0 **** 0.06
13546 C 104.29916932258857 88.25275109077617 51.20652794781546 C 0.0 **** -0.24
13547 H 103.89278632482791 87.3202668406399 51.597470287885244 H 0.0 **** 0.06
13548 H 104.69699241963193 88.84866798060676 52.02829789312926 H 0.0 **** 0.06
13549 H 103.50827277890394 88.81002151567054 50.70318276534732 H 0.0 **** 0.06
13550 H 105.09701885533912 88.03323527731578 50.49725305066863 H 0.0 **** 0.06
13551 C 107.92809050446274 73.09917410508857 1.0764583718355425 C 0.0 **** -0.24
13552 H 108.82930488240909 72.99792828400359 0.47178664945056425 H 0.0 **** 0.06
13553 H 108.11466835996032 72.70151135444695 2.074119143752057 H 0.0 **** 0.06
13554 H 107.11312247441882 72.54427445441786 0.6100984908210307 H 0.0 **** 0.06
13555 H 107.65616354182737 74.1520533075813 1.1492530114000488 H 0.0 **** 0.06
13556 C 75.88157083801977 63.242020728946635 100.35176300962848 C 0.0 **** -0.24
13557 H 75.16321401244085 62.59196970964667 100.85014844702013 H 0.0 **** 0.06
13558 H 75.56720048314776 64.28128786813133 100.46105719133956 H 0.0 **** 0.06
13559 H 75.92946890271685 62.986759407914484 99.29288179235331 H 0.0 **** 0.06
13560 H 76.86523143266055 63.1111680318246 100.8028543272057 H 0.0 **** 0.06
13561 C 36.53922260924193 6.564533063555928 94.91487346658374 C 0.0 **** -0.24
13562 H 37.294878347696425 6.039524060528024 95.50022206825946 H 0.0 **** 0.06
13563 H 35.63014572949942 5.963739789866111 94.8729844010389 H 0.0 **** 0.06
13564 H 36.912517675298204 6.729783342087742 93.9045581379608 H 0.0 **** 0.06
13565 H 36.31887876730866 7.523650552912443 95.38304135452759 H 0.0 **** 0.06
13566 C 102.98048443169077 8.346340649945898 27.067408216550973 C 0.0 **** -0.24
13567 H 101.89746175591213 8.440613425342907 26.98342287307375 H 0.0 **** 0.06
13568 H 103.30177534000043 7.418667282469119 26.591245028022456 H 0.0 **** 0.06
13569 H 103.26249176947312 8.331688674004862 28.120143292443586 H 0.0 **** 0.06
13570 H 103.45791130074329 9.19274882060298 26.57495447643805 H 0.0 **** 0.06
13571 C 96.48046105463098 22.072604938760946 26.265142542655894 C 0.0 **** -0.24
13572 H 96.38783575151277 23.1513169943357 26.386940562457568 H 0.0 **** 0.06
13573 H 95.55699349655075 21.673435419892115 25.845230230242834 H 0.0 **** 0.06
13574 H 96.66822029395814 21.611908734509058 27.235164944554327 H 0.0 **** 0.06
13575 H 97.30968157061983 21.852840482756022 25.59169472554936 H 0.0 **** 0.06
13576 C 4.827558054900464 30.85147645351327 13.90208203417021 C 0.0 **** -0.24
13577 H 3.758683168554029 30.89680074547576 13.696064834283916 H 0.0 **** 0.06
13578 H 5.018926796000855 31.22281513668659 14.909208438411138 H 0.0 **** 0.06
13579 H 5.362994668373574 31.467843723325046 13.17994147576686 H 0.0 **** 0.06
13580 H 5.1693114977815355 29.81991789896429 13.823970353406796 H 0.0 **** 0.06
13581 C 76.00998038266832 81.2983528161906 101.37255766097951 C 0.0 **** -0.24
13582 H 76.89336365336445 81.37864604691384 100.73885270091648 H 0.0 **** 0.06
13583 H 76.31624335869023 81.23430634799183 102.41693500414567 H 0.0 **** 0.06
13584 H 75.45000645808364 80.40278949132883 101.10291435514046 H 0.0 **** 0.06
13585 H 75.38052468296141 82.1768053561486 101.23107405307496 H 0.0 **** 0.06
13586 C 102.96790607834527 103.6473721550702 110.6980980518841 C 0.0 **** -0.24
13587 H 103.89650177304603 103.20756350695584 110.3349474977991 H 0.0 **** 0.06
13588 H 103.0168981396964 103.75535071680864 111.78188511834108 H 0.0 **** 0.06
13589 H 102.1317425116249 103.00060473457583 110.43447465895247 H 0.0 **** 0.06
13590 H 102.82668510955318 104.62710175429731 110.24190784459444 H 0.0 **** 0.06
13591 C 86.71432537360789 62.292592207372394 13.08723512884697 C 0.0 **** -0.24
13592 H 85.88455992612245 62.544526171933086 13.746417540690715 H 0.0 **** 0.06
13593 H 86.62389629839467 61.253659240709595 12.769425649620274 H 0.0 **** 0.06
13594 H 87.65514956030538 62.429021221488995 13.62070111034572 H 0.0 **** 0.06
13595 H 86.69487706388338 62.943825845265195 12.21280129124088 H 0.0 **** 0.06
13596 C 47.66180281359314 114.73191563727353 16.816527792266605 C 0.0 **** -0.24
13597 H 47.64530845771222 115.74891033153877 16.424426141604982 H 0.0 **** 0.06
13598 H 46.647782512357026 114.42613144481082 17.075975044767063 H 0.0 **** 0.06
13599 H 48.29037418863166 114.6967006887914 17.706107398286683 H 0.0 **** 0.06
13600 H 48.06293439567466 114.0579415281919 16.06010775423427 H 0.0 **** 0.06
13601 C 41.657673960025164 115.7111497365791 26.652701850157655 C 0.0 **** -0.24
13602 H 41.8214942400175 115.74612993031674 27.730043162518598 H 0.0 **** 0.06
13603 H 41.01829609562546 116.54269673337551 26.355541066120736 H 0.0 **** 0.06
13604 H 41.17504396387366 114.76947135473354 26.389154628796547 H 0.0 **** 0.06
13605 H 42.615149677163146 115.78478623782071 26.137551531634813 H 0.0 **** 0.06
13606 C 72.26572201091147 28.19482990962051 3.4262866072279223 C 0.0 **** -0.24
13607 H 72.67070121583683 28.96914992533209 2.7750368094505973 H 0.0 **** 0.06
13608 H 71.45360089112475 28.610556504458884 4.023309798782677 H 0.0 **** 0.06
13609 H 73.051564212823 27.82798948182989 4.0860638880113385 H 0.0 **** 0.06
13610 H 71.88666386651414 27.371814354952093 2.8193810470079086 H 0.0 **** 0.06
13611 C 32.76436616099434 110.62326849790068 60.23518372372263 C 0.0 **** -0.24
13612 H 32.861293135500176 109.55228885682116 60.41091273990503 H 0.0 **** 0.06
13613 H 33.062719854726225 110.8526248692141 59.21182663124472 H 0.0 **** 0.06
13614 H 33.406396232249534 111.1647771771858 60.93058271426696 H 0.0 **** 0.06
13615 H 31.728126578770258 110.92439351400758 60.38832486008113 H 0.0 **** 0.06
13616 C 56.17065949902709 88.56378835252241 9.702032360675162 C 0.0 **** -0.24
13617 H 57.000700626950895 88.26476182820386 10.341630509770084 H 0.0 **** 0.06
13618 H 56.55662834557007 88.91621625229902 8.745153773615016 H 0.0 **** 0.06
13619 H 55.60936813006724 89.36428778240025 10.184769009814033 H 0.0 **** 0.06
13620 H 55.514194845259766 87.70850090438293 9.536745936007605 H 0.0 **** 0.06
13621 C 65.0407379887385 92.75921475964694 76.79005903114259 C 0.0 **** -0.24
13622 H 64.49573068504384 92.92355604547245 75.86065442044739 H 0.0 **** 0.06
13623 H 64.39885391120805 93.00375709918217 77.63658478917355 H 0.0 **** 0.06
13624 H 65.92632032612931 93.39429945490076 76.80927648264895 H 0.0 **** 0.06
13625 H 65.3433553501896 91.71385242702888 76.85313283741681 H 0.0 **** 0.06
13626 C 52.23732305485238 112.29725173968521 27.172005692672826 C 0.0 **** -0.24
13627 H 51.37839917425402 112.94289873584302 27.3553651659048 H 0.0 **** 0.06
13628 H 52.76337530354824 112.63717684503763 26.279470558403972 H 0.0 **** 0.06
13629 H 51.89644825683802 111.27229729257584 27.025442652215588 H 0.0 **** 0.06
13630 H 52.9106330925416 112.33796650961759 28.027929659705478 H 0.0 **** 0.06
13631 C 78.62804934492297 18.53437448327793 34.31771565376763 C 0.0 **** -0.24
13632 H 78.86795920656655 17.57096465625085 34.7684925119956 H 0.0 **** 0.06
13633 H 78.00080046482466 18.37835685770935 33.43949907283206 H 0.0 **** 0.06
13634 H 79.54917690541515 19.03723912721904 34.02308684408017 H 0.0 **** 0.06
13635 H 78.09388799783437 19.14953818953404 35.04176000932595 H 0.0 **** 0.06
13636 C 78.39852226019127 45.81239922750008 99.04038795892083 C 0.0 **** -0.24
13637 H 77.93897683538052 45.43230339838166 99.95294488680963 H 0.0 **** 0.06
13638 H 79.33857925237521 46.306807314860094 99.28646618757364 H 0.0 **** 0.06
13639 H 77.72568464352278 46.52615829494765 98.56436218351652 H 0.0 **** 0.06
13640 H 78.59075642909369 44.98401229371669 98.35872303930947 H 0.0 **** 0.06
13641 C 31.66988907055395 16.396615156980715 55.58879271972959 C 0.0 **** -0.24
13642 H 31.3217804271967 15.379663687808502 55.40970891632569 H 0.0 **** 0.06
13643 H 32.745922503655265 16.44650166447383 55.422704363684865 H 0.0 **** 0.06
13644 H 31.447690213637657 16.680319758298552 56.61729712323952 H 0.0 **** 0.06
13645 H 31.164385684467447 17.07873875229076 54.90610932176417 H 0.0 **** 0.06
13646 C 48.23969487747519 35.95446301518048 34.45912178922637 C 0.0 **** -0.24
13647 H 47.799231285496035 36.08142083826918 35.44826259070862 H 0.0 **** 0.06
13648 H 47.49904101521207 36.19956901419704 33.69780130504738 H 0.0 **** 0.06
13649 H 48.56039747128031 34.9194821452128 34.334656962488 H 0.0 **** 0.06
13650 H 49.099437833817206 36.616188047792804 34.356828286740665 H 0.0 **** 0.06
13651 C 86.1232848641827 35.491104511035786 19.98819858318278 C 0.0 **** -0.24
13652 H 85.06859669994506 35.262980305562564 19.83482916525411 H 0.0 **** 0.06
13653 H 86.70919997760063 35.05972806320267 19.17599364542196 H 0.0 **** 0.06
13654 H 86.45193959190794 35.06973179359801 20.93759944699773 H 0.0 **** 0.06
13655 H 86.26274127721456 36.572636982028826 20.002107608181674 H 0.0 **** 0.06
13656 C 51.04393227701774 59.11115861297884 6.026126331399853 C 0.0 **** -0.24
13657 H 49.97144109797705 58.97349540823703 6.171459074994582 H 0.0 **** 0.06
13658 H 51.45556293128554 58.241282929746774 5.514496139688642 H 0.0 **** 0.06
13659 H 51.52895557072772 59.22540991100877 6.996200082617573 H 0.0 **** 0.06
13660 H 51.21682218536362 60.00347123424896 5.4258662765811465 H 0.0 **** 0.06
13661 C 40.106834484898286 52.71401623217281 83.46440912167824 C 0.0 **** -0.24
13662 H 40.9971093060891 53.10566012401384 82.97224982289211 H 0.0 **** 0.06
13663 H 40.076373093455004 51.62965554751793 83.35117899911387 H 0.0 **** 0.06
13664 H 39.21802297783432 53.151372785525496 83.01026456180497 H 0.0 **** 0.06
13665 H 40.13634312652573 52.96786464244971 84.52326940359873 H 0.0 **** 0.06
13666 C 22.01023757991916 53.2668267263725 85.4036015624252 C 0.0 **** -0.24
13667 H 21.063253884679863 53.70718191904464 85.0928136881993 H 0.0 **** 0.06
13668 H 22.813942151971258 53.98875415015516 85.25032120889483 H 0.0 **** 0.06
13669 H 22.206323309917224 52.37228365710291 84.81207043400198 H 0.0 **** 0.06
13670 H 21.95801865333067 53.00031745446705 86.45882519158616 H 0.0 **** 0.06
13671 C 68.60586700491339 48.26776187762427 97.71797412426699 C 0.0 **** -0.24
13672 H 68.11972769608283 47.392087007369724 98.14858774016471 H 0.0 **** 0.06
13673 H 69.25321915918059 47.95626348098165 96.89806991263026 H 0.0 **** 0.06
13674 H 69.20173345896785 48.76487627909418 98.48278674766533 H 0.0 **** 0.06
13675 H 67.84845619933373 48.955416627264015 97.34211941163028 H 0.0 **** 0.06
13676 C 12.960929581835416 21.503655278788102 98.4313436350362 C 0.0 **** -0.24
13677 H 13.279162115116236 21.387446269944377 97.39473784813313 H 0.0 **** 0.06
13678 H 13.022110117504099 22.554747227369347 98.71395757788505 H 0.0 **** 0.06
13679 H 13.609059236316284 20.914714502123132 99.07868245984545 H 0.0 **** 0.06
13680 H 11.932110679793965 21.158547733380175 98.53541299332093 H 0.0 **** 0.06
13681 C 29.635633372778628 95.30015776900078 55.492109600153384 C 0.0 **** -0.24
13682 H 28.564896595622926 95.44593928429273 55.351178980953335 H 0.0 **** 0.06
13683 H 30.110717309241203 95.13793071869105 54.5253249700352 H 0.0 **** 0.06
13684 H 29.802712574820873 94.43194194954978 56.13034768431484 H 0.0 **** 0.06
13685 H 30.063575372751757 96.18533611392903 55.96429494142075 H 0.0 **** 0.06
13686 C 72.29165820407059 9.454012681545322 24.101053604058606 C 0.0 **** -0.24
13687 H 72.20276392072083 10.464725096829426 24.50030068052186 H 0.0 **** 0.06
13688 H 71.78721512481184 8.754458477152056 24.76815187574939 H 0.0 **** 0.06
13689 H 73.34558453022453 9.186949163814575 24.022502024787805 H 0.0 **** 0.06
13690 H 71.83184804294558 9.411691824028821 23.113757033424378 H 0.0 **** 0.06
13691 C 105.40709533569051 34.407999271921625 31.937336015084583 C 0.0 **** -0.24
13692 H 105.84484041601783 35.31112637338555 32.363794345922344 H 0.0 **** 0.06
13693 H 105.76605202640073 33.53685516847327 32.48610559898299 H 0.0 **** 0.06
13694 H 105.69697836075267 34.32401509135829 30.890168202376145 H 0.0 **** 0.06
13695 H 104.32160579815934 34.46162464662498 32.01035419815801 H 0.0 **** 0.06
13696 C 76.63694123681813 91.7107556321746 51.69510698431313 C 0.0 **** -0.24
13697 H 76.54589101947778 92.69936926381405 51.24446416929385 H 0.0 **** 0.06
13698 H 77.03840041316028 91.80771036932717 52.70464220830698 H 0.0 **** 0.06
13699 H 77.30871703356041 91.09874724042962 51.09377435253069 H 0.0 **** 0.06
13700 H 75.65501911897991 91.24048113314402 51.73791773928292 H 0.0 **** 0.06
13701 C 15.064642437792827 34.749604689716534 65.36908702064775 C 0.0 **** -0.24
13702 H 14.2604211517193 35.437301628508294 65.63368124193033 H 0.0 **** 0.06
13703 H 15.555440708472503 34.39977051024201 66.2773584980697 H 0.0 **** 0.06
13704 H 15.789447903374707 35.263977281731655 64.73820602625761 H 0.0 **** 0.06
13705 H 14.650671037939986 33.89894177602514 64.82878323158988 H 0.0 **** 0.06
13706 C 12.9864225047247 23.683250040577434 52.9756907233664 C 0.0 **** -0.24
13707 H 12.86641755412441 23.601897632946915 54.05583124239546 H 0.0 **** 0.06
13708 H 12.725999596101687 22.732986845151714 52.50917624998041 H 0.0 **** 0.06
13709 H 14.02346393773037 23.930116451968672 52.74372493162387 H 0.0 **** 0.06
13710 H 12.332626863073926 24.466958552889608 52.59501881428673 H 0.0 **** 0.06
13711 C 35.402374595081426 72.86151430980033 68.14965231968051 C 0.0 **** -0.24
13712 H 36.30071982164357 72.5151453330842 68.65955259111465 H 0.0 **** 0.06
13713 H 35.28687776026601 72.32082486253637 67.21011765513074 H 0.0 **** 0.06
13714 H 35.487982113298784 73.92859067393385 67.94705595071835 H 0.0 **** 0.06
13715 H 34.53371557659099 72.68028213948662 68.7825791479508 H 0.0 **** 0.06
13716 C 27.500946360989758 4.268762150796363 56.604410755982194 C 0.0 **** -0.24
13717 H 26.51925395142058 3.806600990793143 56.50159038918881 H 0.0 **** 0.06
13718 H 28.243548964565093 3.501062820312285 56.820831759276025 H 0.0 **** 0.06
13719 H 27.478204235574538 4.993472457203723 57.41870294735747 H 0.0 **** 0.06
13720 H 27.762197189131882 4.77584411381747 55.67429732648409 H 0.0 **** 0.06
13721 C 51.97311846043368 32.1328866737974 39.92434205437975 C 0.0 **** -0.24
13722 H 52.073488595967675 31.75998024566519 40.94352632796749 H 0.0 **** 0.06
13723 H 52.21669561289167 31.335654569168724 39.2207020763947 H 0.0 **** 0.06
13724 H 52.6544228379305 32.97080675442254 39.774447802378305 H 0.0 **** 0.06
13725 H 50.94765187689612 32.46385482975808 39.75685058199761 H 0.0 **** 0.06
13726 C 6.276717098409108 56.775209227811835 62.42614448381667 C 0.0 **** -0.24
13727 H 5.408149289335796 56.14636568987772 62.227680892033874 H 0.0 **** 0.06
13728 H 6.410905525449323 57.4787187743591 61.604043037069744 H 0.0 **** 0.06
13729 H 7.163539783526261 56.14964785602675 62.5180430784437 H 0.0 **** 0.06
13730 H 6.1218652940178515 57.325660940318905 63.35475950942242 H 0.0 **** 0.06
13731 C 106.64776286263307 63.65889676393698 105.94871568672275 C 0.0 **** -0.24
13732 H 106.00495007521448 63.07957504070936 105.28496565763854 H 0.0 **** 0.06
13733 H 107.45748968947612 63.026439523481116 106.31238484856556 H 0.0 **** 0.06
13734 H 106.0626623161344 64.02227852256891 106.7939647954334 H 0.0 **** 0.06
13735 H 107.06446147940486 64.50474191516452 105.40302425678158 H 0.0 **** 0.06
13736 C 116.05220522746842 40.50343917855926 30.011896354000157 C 0.0 **** -0.24
13737 H 115.97722218626623 40.06953836377952 31.008666414473566 H 0.0 **** 0.06
13738 H 115.7230461003752 39.773233768378596 29.272028566847666 H 0.0 **** 0.06
13739 H 117.08847422001469 40.78079835538655 29.8134182753617 H 0.0 **** 0.06
13740 H 115.42173804192389 41.39049213806894 29.95308204171414 H 0.0 **** 0.06
13741 C 23.138681597378373 96.99255247497422 95.64622128244079 C 0.0 **** -0.24
13742 H 23.092467082992762 96.88688532128162 94.56236860203552 H 0.0 **** 0.06
13743 H 23.81944090335451 96.24433361101762 96.05383671445003 H 0.0 **** 0.06
13744 H 22.14429711042744 96.8474232423458 96.06769954837435 H 0.0 **** 0.06
13745 H 23.4994092344259 97.98897546380556 95.89886072798356 H 0.0 **** 0.06
13746 C 52.414847989219695 28.120212139422733 84.6219445743308 C 0.0 **** -0.24
13747 H 53.39470476470023 28.424336582329204 84.99029087732657 H 0.0 **** 0.06
13748 H 52.136716247702466 27.16722394856555 85.07472857383354 H 0.0 **** 0.06
13749 H 52.45183805077647 28.01185020019369 83.53813722510918 H 0.0 **** 0.06
13750 H 51.676291651516664 28.87671855613098 84.88752987970705 H 0.0 **** 0.06
13751 C 81.31294195416464 69.37430998992585 26.743102921262107 C 0.0 **** -0.24
13752 H 80.67762339324923 68.48968929369363 26.713582514386246 H 0.0 **** 0.06
13753 H 80.6950947214761 70.26063321479864 26.893166252095114 H 0.0 **** 0.06
13754 H 81.85554515778398 69.46379830321683 25.802055332477266 H 0.0 **** 0.06
13755 H 82.02357411049019 69.28344583975272 27.56455018413186 H 0.0 **** 0.06
13756 C 85.52631693749052 77.11782659964774 90.12205749179839 C 0.0 **** -0.24
13757 H 84.91889071628438 77.60320235296297 90.88604292134681 H 0.0 **** 0.06
13758 H 85.00479705644506 76.2350018776335 89.75000966335978 H 0.0 **** 0.06
13759 H 86.48280179057636 76.81968766561121 90.55244443190946 H 0.0 **** 0.06
13760 H 85.6979749794018 77.8111051904522 89.29958366959875 H 0.0 **** 0.06
13761 C 26.839546560687495 89.26577632727842 14.176538409228172 C 0.0 **** -0.24
13762 H 27.25987748827538 90.15284941054259 13.702262913946797 H 0.0 **** 0.06
13763 H 26.572486518403537 88.5370106194664 13.410215674827526 H 0.0 **** 0.06
13764 H 25.948593260961502 89.54327215818998 14.74051827735586 H 0.0 **** 0.06
13765 H 27.576048154596037 88.83065352798673 14.85138392014558 H 0.0 **** 0.06
13766 C 100.4827108734207 89.62737052265922 67.12569774325945 C 0.0 **** -0.24
13767 H 100.08957819891327 88.87071078614758 67.80468427411805 H 0.0 **** 0.06
13768 H 101.1238705002406 89.15164996534028 66.38401033312729 H 0.0 **** 0.06
13769 H 101.05960651555367 90.35844703698467 67.69204437682981 H 0.0 **** 0.06
13770 H 99.65519728159663 90.12845566776957 66.62354846951212 H 0.0 **** 0.06
13771 C 93.79347548188906 83.60304481057725 102.52978761088164 C 0.0 **** -0.24
13772 H 93.16913392656048 83.46638974384683 103.41264771851422 H 0.0 **** 0.06
13773 H 94.7121047235795 84.11695551364258 102.81156949321209 H 0.0 **** 0.06
13774 H 93.25388436147279 84.19757580765392 101.79276097230564 H 0.0 **** 0.06
13775 H 94.03715428116985 82.62915521804729 102.10388652473046 H 0.0 **** 0.06
13776 C 107.98626827528406 42.768375616901324 97.3134996236501 C 0.0 **** -0.24
13777 H 107.58063467235053 41.94340181024063 96.72827698657335 H 0.0 **** 0.06
13778 H 109.07090879585184 42.673391391034045 97.37282040027907 H 0.0 **** 0.06
13779 H 107.5639964290873 42.74410710169269 98.3174654695062 H 0.0 **** 0.06
13780 H 107.73051556324555 43.71400574789959 96.8351804947751 H 0.0 **** 0.06
13781 C 47.42626110114039 5.139704560508392 57.99886103707058 C 0.0 **** -0.24
13782 H 47.15712681756042 4.151304481336638 58.37000915989614 H 0.0 **** 0.06
13783 H 47.85361238905514 5.728882258947351 58.81044313419608 H 0.0 **** 0.06
13784 H 46.53501685991755 5.639493090683118 57.616875168141746 H 0.0 **** 0.06
13785 H 48.1585792896535 5.039936171221996 57.19718881470163 H 0.0 **** 0.06
13786 C 61.63187447063237 100.79686752854826 107.75087253715003 C 0.0 **** -0.24
13787 H 61.37321094528846 99.73865674341658 107.79736044074033 H 0.0 **** 0.06
13788 H 62.609908122912515 100.95116141281943 108.20807010064553 H 0.0 **** 0.06
13789 H 60.88248198534703 101.3774702715541 108.28861718741979 H 0.0 **** 0.06
13790 H 61.661625756249464 101.11774724484764 106.70946145097702 H 0.0 **** 0.06
13791 C 41.03303424709938 93.47355989603486 76.70762927801377 C 0.0 **** -0.24
13792 H 42.03867561968721 93.87331033174982 76.83656322644924 H 0.0 **** 0.06
13793 H 40.767781296429945 92.86932489185244 77.5753878378344 H 0.0 **** 0.06
13794 H 40.9997167055777 92.85608152244953 75.81010582132458 H 0.0 **** 0.06
13795 H 40.32564148873712 94.29753217156488 76.60753326161375 H 0.0 **** 0.06
13796 C 80.44210436585891 45.0863362741106 103.66860911741898 C 0.0 **** -0.24
13797 H 80.05612495822442 44.26196030297696 103.06847733436388 H 0.0 **** 0.06
13798 H 80.41128741080146 46.00626634179627 103.08406656288838 H 0.0 **** 0.06
13799 H 81.47093935226604 44.87388944838809 103.9582120310352 H 0.0 **** 0.06
13800 H 79.8282080664899 45.20316715130885 104.56243735767376 H 0.0 **** 0.06
13801 C 44.72673382118785 33.23296023366626 17.346262039858857 C 0.0 **** -0.24
13802 H 44.682810083152845 32.37942425581835 18.022684244610303 H 0.0 **** 0.06
13803 H 45.11730647859994 32.911046417432175 16.380989824766743 H 0.0 **** 0.06
13804 H 45.38151641393449 33.996209550819486 17.767115005931288 H 0.0 **** 0.06
13805 H 43.72539867604462 33.644284430989245 17.214731212825114 H 0.0 **** 0.06
13806 C 4.891976725519612 102.3646971648079 69.45261100416548 C 0.0 **** -0.24
13807 H 5.052282096554734 101.80557974726744 70.37461961830377 H 0.0 **** 0.06
13808 H 3.8787940113454624 102.18483772857115 69.09058414945255 H 0.0 **** 0.06
13809 H 5.6100382761354695 102.03844179270206 68.7015192013973 H 0.0 **** 0.06
13810 H 5.0245800658909445 103.42906653431197 69.6455543660282 H 0.0 **** 0.06
13811 C 40.976186285306014 18.880639871796305 57.57365876974362 C 0.0 **** -0.24
13812 H 39.99148445117336 18.91840526335234 58.03966096423232 H 0.0 **** 0.06
13813 H 41.30598888340168 19.892299859021733 57.33885408782425 H 0.0 **** 0.06
13814 H 40.92140178401317 18.293523682003 56.65650924653119 H 0.0 **** 0.06
13815 H 41.68480911564018 18.417030159945085 58.260038905109575 H 0.0 **** 0.06
13816 C 83.6741949198377 52.519181761713696 101.88924490875468 C 0.0 **** -0.24
13817 H 83.58684068345423 51.888985035573 102.77590011429226 H 0.0 **** 0.06
13818 H 83.02022655527236 53.38471617807022 101.994651302308 H 0.0 **** 0.06
13819 H 83.38247005175975 51.94673485546093 101.00803257473399 H 0.0 **** 0.06
13820 H 84.70550983028977 52.85290364455034 101.78220692929688 H 0.0 **** 0.06
13821 C 37.388433709964715 46.18118395486539 13.559010056780636 C 0.0 **** -0.24
13822 H 37.98878937843071 45.276125394811686 13.463484807829786 H 0.0 **** 0.06
13823 H 37.581084089482175 46.644233614974496 14.526541339127334 H 0.0 **** 0.06
13824 H 36.33185111283913 45.9254722819436 13.480807066945687 H 0.0 **** 0.06
13825 H 37.65383867619519 46.87767974093947 12.762936029123637 H 0.0 **** 0.06
13826 C 66.58394921396803 61.55451021411608 30.322361084158672 C 0.0 **** -0.24
13827 H 67.48379415476342 61.115790167752834 30.752769879055705 H 0.0 **** 0.06
13828 H 66.72251533276173 61.685664102209444 29.2480402769977 H 0.0 **** 0.06
13829 H 66.39351962578195 62.5230026881286 30.785455998369088 H 0.0 **** 0.06
13830 H 65.73601067344867 60.893188572732015 30.500977690261152 H 0.0 **** 0.06
13831 C 1.7700930347668873 38.65271232371133 26.808521285680854 C 0.0 **** -0.24
13832 H 1.436010962990025 39.05266303396867 25.851592073825543 H 0.0 **** 0.06
13833 H 2.6348433745369846 39.21803405149399 27.156942293243674 H 0.0 **** 0.06
13834 H 2.04643672826559 37.60530512706657 26.68721054763489 H 0.0 **** 0.06
13835 H 0.9645473801928404 38.734046678021684 27.53788254784928 H 0.0 **** 0.06
13836 C 13.304809704282093 44.14369925265032 59.45197354027069 C 0.0 **** -0.24
13837 H 14.253222394852287 43.69896979969991 59.151320880535 H 0.0 **** 0.06
13838 H 12.78045582836586 44.51277227527288 58.56969457774709 H 0.0 **** 0.06
13839 H 13.492164654190503 44.97076453308904 60.13698166119429 H 0.0 **** 0.06
13840 H 12.692971790527679 43.39100730021585 59.950314009219035 H 0.0 **** 0.06
13841 C 53.02838532091141 93.83505793905371 115.12420442757971 C 0.0 **** -0.24
13842 H 53.42793589351544 94.10911876205 114.14811583760817 H 0.0 **** 0.06
13843 H 53.70409996416839 94.1854958338374 115.9050520613271 H 0.0 **** 0.06
13844 H 52.93221481533601 92.7509151639837 115.18631452213441 H 0.0 **** 0.06
13845 H 52.04922343791861 94.29438299326398 115.2582806901759 H 0.0 **** 0.06
13846 C 75.53107984651336 69.12759681367379 25.083145535306414 C 0.0 **** -0.24
13847 H 74.83542600943258 69.13315217996345 24.244283320065904 H 0.0 **** 0.06
13848 H 75.8557932243022 70.14685269780313 25.291792643746135 H 0.0 **** 0.06
13849 H 76.39702987561338 68.5145058202657 24.831922546060753 H 0.0 **** 0.06
13850 H 75.03600840382376 68.71586280346901 25.96213489067719 H 0.0 **** 0.06
13851 C 106.42247246215084 3.247304170235765 75.78223447577759 C 0.0 **** -0.24
13852 H 105.64299137008331 3.943111964376385 75.47102596963202 H 0.0 **** 0.06
13853 H 105.96869548059851 2.2987886656480896 76.06807832716618 H 0.0 **** 0.06
13854 H 106.96256643711408 3.6633364817485727 76.63200709791838 H 0.0 **** 0.06
13855 H 107.11466969506301 3.084672816088471 74.95507240204287 H 0.0 **** 0.06
13856 C 1.6005185747751796 82.7439006833342 18.65963683526627 C 0.0 **** -0.24
13857 H 0.5883339843300632 82.77858914311608 18.257974078674238 H 0.0 **** 0.06
13858 H 1.8367434077434268 81.72354591402143 18.961413130002285 H 0.0 **** 0.06
13859 H 1.6707207865713372 83.40470184153153 19.523972693944046 H 0.0 **** 0.06
13860 H 2.3061457986545406 83.07009306949632 17.89471671555586 H 0.0 **** 0.06
13861 C 12.818422868900171 96.8205498562109 101.88835157685071 C 0.0 **** -0.24
13862 H 12.548874143076802 95.85006260899851 102.3055888965149 H 0.0 **** 0.06
13863 H 12.49774854377526 96.8698256381073 100.84683203729168 H 0.0 **** 0.06
13864 H 13.89946233340686 96.95136648000252 101.94220029733498 H 0.0 **** 0.06
13865 H 12.328458250698645 97.60997994717349 102.4581987170518 H 0.0 **** 0.06
13866 C 21.81214942859097 14.484300628943203 54.143417198007796 C 0.0 **** -0.24
13867 H 21.15243595988659 13.92193350562232 53.4823662587815 H 0.0 **** 0.06
13868 H 22.54083135242439 15.033850139748552 53.5481123082198 H 0.0 **** 0.06
13869 H 22.33163652821628 13.795680012082727 54.81048677418471 H 0.0 **** 0.06
13870 H 21.221639616739054 15.185511169769882 54.73355695887142 H 0.0 **** 0.06
13871 C 52.36423260241173 32.46729326098452 67.5315779629141 C 0.0 **** -0.24
13872 H 53.06317671575124 33.02205575518424 68.15740673953556 H 0.0 **** 0.06
13873 H 51.79667847952766 33.16556901695796 66.91564671015962 H 0.0 **** 0.06
13874 H 51.6801643089497 31.90149716547444 68.16455138248782 H 0.0 **** 0.06
13875 H 52.91732117899409 31.782153924947153 66.88934742533729 H 0.0 **** 0.06
13876 C 21.225546106994898 95.1633640742765 40.86379114938924 C 0.0 **** -0.24
13877 H 20.55272098741449 95.13704536613335 40.00659067471689 H 0.0 **** 0.06
13878 H 20.698404823965177 94.80986249394095 41.750642736715776 H 0.0 **** 0.06
13879 H 21.565000131460636 96.1869274782774 41.02626871286695 H 0.0 **** 0.06
13880 H 22.08529496318954 94.52169179536611 40.671303362955086 H 0.0 **** 0.06
13881 C 110.70518840547687 77.82271324483088 94.89296819528013 C 0.0 **** -0.24
13882 H 111.13005494676293 77.46450599645107 93.9557686966283 H 0.0 **** 0.06
13883 H 110.68921358442051 77.00875371648578 95.61845404308107 H 0.0 **** 0.06
13884 H 109.68819551373859 78.1747983226536 94.71924560112964 H 0.0 **** 0.06
13885 H 111.31315617221634 78.64158383163988 95.27768643835577 H 0.0 **** 0.06
13886 C 99.72159615990788 76.13312402613414 41.39318640337069 C 0.0 **** -0.24
13887 H 100.27854775194206 75.66445545326357 40.58187533085862 H 0.0 **** 0.06
13888 H 100.35046139825545 76.18767373400425 42.28211150570269 H 0.0 **** 0.06
13889 H 98.83265913912842 75.541545274931 41.612819136614576 H 0.0 **** 0.06
13890 H 99.42382827205418 77.13841984976136 41.09571617264726 H 0.0 **** 0.06
13891 C 69.8988540109278 21.71233033836458 71.535360566382 C 0.0 **** -0.24
13892 H 69.44514809139116 21.477606726870505 72.49820724428793 H 0.0 **** 0.06
13893 H 70.17334118915608 22.76615690265089 71.51013685958708 H 0.0 **** 0.06
13894 H 69.18638209950112 21.502175002398744 70.73787109546407 H 0.0 **** 0.06
13895 H 70.79074184945767 21.100423064833848 71.39567659083036 H 0.0 **** 0.06
13896 C 108.13018845235206 64.70752991495016 102.56942437600364 C 0.0 **** -0.24
13897 H 107.11200284506296 64.3772487242585 102.36391193150254 H 0.0 **** 0.06
13898 H 108.36842415613259 65.56277091197992 101.93770964399411 H 0.0 **** 0.06
13899 H 108.82507619319742 63.89339976396166 102.35768106437126 H 0.0 **** 0.06
13900 H 108.21485741242597 64.99332869072077 103.61770304653166 H 0.0 **** 0.06
13901 C 26.93503407698023 90.90278580536273 113.36975539341924 C 0.0 **** -0.24
13902 H 27.303639477822855 89.90450188414235 113.60485157299487 H 0.0 **** 0.06
13903 H 26.565006725452804 91.37633942330186 114.27916657715814 H 0.0 **** 0.06
13904 H 26.125487260115307 90.82837341964324 112.64339615959389 H 0.0 **** 0.06
13905 H 27.745109430216104 91.50014574105353 112.95145288226003 H 0.0 **** 0.06
13906 C 109.36799002374197 24.70586574327166 76.0871860887548 C 0.0 **** -0.24
13907 H 108.65284682763892 25.52437874858964 75.99922192461997 H 0.0 **** 0.06
13908 H 110.26556817745158 24.94481757047825 75.51727520532299 H 0.0 **** 0.06
13909 H 108.92117269665738 23.79086867208298 75.69610975337244 H 0.0 **** 0.06
13910 H 109.62878331195705 24.562349651924734 77.1362799938918 H 0.0 **** 0.06
13911 C 64.95012860556383 75.43204910448884 13.85407590332801 C 0.0 **** -0.24
13912 H 64.54394695018792 74.50099494780383 14.249951656771685 H 0.0 **** 0.06
13913 H 64.96816493885902 75.38761366884754 12.765734931208215 H 0.0 **** 0.06
13914 H 65.96407988908541 75.57393199152543 14.229716792711315 H 0.0 **** 0.06
13915 H 64.32507243410808 76.2656605044084 14.173805110482135 H 0.0 **** 0.06
13916 C 84.6202390733713 73.83050821036244 63.77426943031815 C 0.0 **** -0.24
13917 H 85.21967103230955 74.30596684181495 64.54986101944746 H 0.0 **** 0.06
13918 H 83.69420971662879 73.45383633322473 64.21013863968196 H 0.0 **** 0.06
13919 H 85.1793760743393 73.0034380843336 63.3380656713641 H 0.0 **** 0.06
13920 H 84.38564332427788 74.55934037779633 62.99832582146359 H 0.0 **** 0.06
13921 C 31.774545042013813 7.596065074207502 95.90193824954781 C 0.0 **** -0.24
13922 H 31.13212806349827 7.784067477572307 95.04150027707507 H 0.0 **** 0.06
13923 H 32.392776481375904 6.7186553560699735 95.70819324750371 H 0.0 **** 0.06
13924 H 31.15875011814711 7.419700115285991 96.78366720906402 H 0.0 **** 0.06
13925 H 32.41422760550995 8.461950903230559 96.07217897484517 H 0.0 **** 0.06
13926 C 29.053089570198836 37.38512746890302 84.64298282724175 C 0.0 **** -0.24
13927 H 29.1475678030651 37.35738074893615 83.55709195242875 H 0.0 **** 0.06
13928 H 28.76626555330688 36.3983993917204 85.0074271798571 H 0.0 **** 0.06
13929 H 28.291463115756244 38.112097438505074 84.92231181673819 H 0.0 **** 0.06
13930 H 30.00890821371246 37.67149843787524 85.08302534775257 H 0.0 **** 0.06
13931 C 101.06718432018337 16.166835110445675 28.08965696820001 C 0.0 **** -0.24
13932 H 101.11226751990137 16.75988662279994 27.17604797484698 H 0.0 **** 0.06
13933 H 101.2948075448175 15.12574130047912 27.859302134443965 H 0.0 **** 0.06
13934 H 100.0671919273214 16.23472188967486 28.517766243105875 H 0.0 **** 0.06
13935 H 101.79497729724534 16.547565495742816 28.806153804148103 H 0.0 **** 0.06
13936 C 87.05632760689258 62.58659612102438 103.28424615652139 C 0.0 **** -0.24
13937 H 87.39676790781374 61.55611790923454 103.18112952292054 H 0.0 **** 0.06
13938 H 87.24794919955048 63.126423557037306 102.35733708717365 H 0.0 **** 0.06
13939 H 87.59350531797136 63.0655040462535 104.10279197755676 H 0.0 **** 0.06
13940 H 85.98798368462428 62.595773100082745 103.4965099523042 H 0.0 **** 0.06
13941 C 21.34478958851031 14.8131998804146 84.58417262506634 C 0.0 **** -0.24
13942 H 20.407283846791557 14.784758984520522 84.028787110851 H 0.0 **** 0.06
13943 H 21.941934265348863 13.935036667316155 84.33370364539365 H 0.0 **** 0.06
13944 H 21.13343188468201 14.816109753951537 85.65278215718246 H 0.0 **** 0.06
13945 H 21.89610062617527 15.715024994002079 84.31988772176692 H 0.0 **** 0.06
13946 C 72.57913715276658 93.98933138959757 53.8151496098929 C 0.0 **** -0.24
13947 H 73.49712914174322 94.01585022894884 53.229047778784434 H 0.0 **** 0.06
13948 H 72.45637542175882 94.93601954614226 54.34066366230894 H 0.0 **** 0.06
13949 H 72.63410432904075 93.17557477112484 54.53837969166267 H 0.0 **** 0.06
13950 H 71.72918034115463 93.82909884916992 53.15193252004303 H 0.0 **** 0.06
13951 C 9.37076319940752 4.730723528468545 3.6740326752384362 C 0.0 **** -0.24
13952 H 9.793710911037692 5.513645119100715 4.304077135828578 H 0.0 **** 0.06
13953 H 8.458853891655565 5.097436804262415 3.200864776893752 H 0.0 **** 0.06
13954 H 9.138844558523715 3.858914596369658 4.285134833331739 H 0.0 **** 0.06
13955 H 10.092809420414198 4.45379793637693 2.905142889962775 H 0.0 **** 0.06
13956 C 2.7707976434209876 52.25044215627025 22.364258038873498 C 0.0 **** -0.24
13957 H 2.5703413419666603 51.180121175541856 22.4102169541646 H 0.0 **** 0.06
13958 H 3.809918590066907 52.41371807457673 22.079155293317466 H 0.0 **** 0.06
13959 H 2.5868643919743146 52.69595708201035 23.34190213324491 H 0.0 **** 0.06
13960 H 2.1136682716738857 52.71026876125795 21.62634786265663 H 0.0 **** 0.06
13961 C 110.80301860313047 84.4291461622415 47.15854691937693 C 0.0 **** -0.24
13962 H 110.55220183479956 84.09709583491937 48.165720917741055 H 0.0 **** 0.06
13963 H 109.88603443861459 84.5809687590191 46.588569774246025 H 0.0 **** 0.06
13964 H 111.41470102876553 83.67222367971198 46.6677517247993 H 0.0 **** 0.06
13965 H 111.35693287694039 85.36639639550387 47.213209074319195 H 0.0 **** 0.06
13966 C 33.77012635060845 45.29933587113962 31.875585548178094 C 0.0 **** -0.24
13967 H 34.735440335882004 45.29816159825285 32.38171348667538 H 0.0 **** 0.06
13968 H 33.34373078773194 46.3015949707347 31.90902876760822 H 0.0 **** 0.06
13969 H 33.098521351936 44.60102840122531 32.37382073374948 H 0.0 **** 0.06
13970 H 33.905089128465704 44.99603792711815 30.837038769943433 H 0.0 **** 0.06
13971 C 22.371294140692896 91.74569382364447 58.727209313394305 C 0.0 **** -0.24
13972 H 22.761339007060087 90.96172770968283 59.37587954187696 H 0.0 **** 0.06
13973 H 23.022805379789816 92.6183451513422 58.77909152941563 H 0.0 **** 0.06
13974 H 21.367327997621885 92.02001780072177 59.05132705934164 H 0.0 **** 0.06
13975 H 22.33387204065815 91.38116451317157 57.6999581190884 H 0.0 **** 0.06
13976 C 81.25343356672158 17.245565725113984 48.63430930701594 C 0.0 **** -0.24
13977 H 82.187590204093 17.740621505005844 48.89985238266121 H 0.0 **** 0.06
13978 H 81.44414702872595 16.19061023961085 48.43732640309503 H 0.0 **** 0.06
13979 H 80.83554872727774 17.712836084081456 47.74253318852999 H 0.0 **** 0.06
13980 H 80.5463236047521 17.33867131391867 49.459463777701956 H 0.0 **** 0.06
13981 C 36.49391268691599 5.247769370987868 102.45973464726094 C 0.0 **** -0.24
13982 H 37.11891414421879 5.875768669069345 101.82336986691746 H 0.0 **** 0.06
13983 H 37.12595663361253 4.684262133359226 103.14546269682978 H 0.0 **** 0.06
13984 H 35.92331398757295 4.5571459858169305 101.83925709202401 H 0.0 **** 0.06
13985 H 35.809079939806935 5.87619114878683 103.0283690585949 H 0.0 **** 0.06
13986 C 78.54238373776658 17.771869187752714 29.515634179090952 C 0.0 **** -0.24
13987 H 78.60047833070766 16.837532438588255 30.073646545932093 H 0.0 **** 0.06
13988 H 79.14558916298157 17.692767133181405 28.61070097803497 H 0.0 **** 0.06
13989 H 78.9186721022927 18.58767854637506 30.13283440651044 H 0.0 **** 0.06
13990 H 77.50535491624908 17.96949625174352 29.24405593957769 H 0.0 **** 0.06
13991 C 78.75519473419723 25.143187947199323 71.7904404342878 C 0.0 **** -0.24
13992 H 78.25238656154826 24.613807791313576 72.60008516211462 H 0.0 **** 0.06
13993 H 78.13964185708394 25.098257658486006 70.89125081632073 H 0.0 **** 0.06
13994 H 79.72017400838797 24.676431143642475 71.59459607943796 H 0.0 **** 0.06
13995 H 78.90574902940605 26.184181687654075 72.07580928770625 H 0.0 **** 0.06
13996 C 77.56983954984037 110.27788636418933 103.73195222848449 C 0.0 **** -0.24
13997 H 76.57992672728247 110.65272617937092 103.9922245591593 H 0.0 **** 0.06
13998 H 78.08059834810905 111.00824620995934 103.10339436686692 H 0.0 **** 0.06
13999 H 77.47081256521014 109.33772595960096 103.19045987700991 H 0.0 **** 0.06
14000 H 78.14690455222254 110.11417140841905 104.64176063136327 H 0.0 **** 0.06
14001 C 62.92320643628913 100.50448787178314 62.97491000458762 C 0.0 **** -0.24
14002 H 62.85229934435143 101.45339563408214 63.507437245768905 H 0.0 **** 0.06
14003 H 62.163096462869156 99.81888804985368 63.352084754877545 H 0.0 **** 0.06
14004 H 63.91168445109226 100.07351199313896 63.132078507720486 H 0.0 **** 0.06
14005 H 62.764974443683506 100.67275441608822 61.910286176751306 H 0.0 **** 0.06
14006 C 47.662093462049825 63.08040095224882 17.72270203129372 C 0.0 **** -0.24
14007 H 48.287861717069916 63.75683609692604 17.13907831008865 H 0.0 **** 0.06
14008 H 47.684359712438464 63.37918553948816 18.770911444297553 H 0.0 **** 0.06
14009 H 48.0397158645861 62.062869137455436 17.62607777955833 H 0.0 **** 0.06
14010 H 46.63776664489967 63.124652582352866 17.35405549026612 H 0.0 **** 0.06
14011 C 82.36340430364291 116.05289947967647 81.95921164745644 C 0.0 **** -0.24
14012 H 82.01415725351842 115.02813900291838 82.08632749233516 H 0.0 **** 0.06
14013 H 83.42429008280655 116.04576468125056 81.70879313492532 H 0.0 **** 0.06
14014 H 82.21236552686315 116.60475117915047 82.88634264500593 H 0.0 **** 0.06
14015 H 81.80283902587433 116.52983431989291 81.15596223189641 H 0.0 **** 0.06
14016 C 72.75757544861051 50.00084686282764 76.77282723365471 C 0.0 **** -0.24
14017 H 72.72255798083799 49.053190840657464 76.23621587035456 H 0.0 **** 0.06
14018 H 73.24515925004741 50.752722412085404 76.15172160468506 H 0.0 **** 0.06
14019 H 73.31877792702005 49.87378945388923 77.69866640330588 H 0.0 **** 0.06
14020 H 71.74255417136425 50.32434158451338 77.00470213689499 H 0.0 **** 0.06
14021 C 21.387942937041004 66.3612311588696 2.535658539227029 C 0.0 **** -0.24
14022 H 22.246594937973885 65.89081674727862 3.0159314342336643 H 0.0 **** 0.06
14023 H 21.330898670957072 66.03623904090716 1.4968163769215153 H 0.0 **** 0.06
14024 H 21.500033568570835 67.44488198451182 2.573229188634798 H 0.0 **** 0.06
14025 H 20.476249929664558 66.07263567962292 3.058620743138931 H 0.0 **** 0.06
14026 C 37.585518147354904 65.75545645498232 28.64537237722186 C 0.0 **** -0.24
14027 H 38.572051515093804 65.39956122454151 28.941962079260406 H 0.0 **** 0.06
14028 H 37.689809008105755 66.48375859166674 27.840667821045145 H 0.0 **** 0.06
14029 H 37.097331283000315 66.22510993162723 29.49938418652488 H 0.0 **** 0.06
14030 H 36.983952448618865 64.91475404011953 28.29938807067498 H 0.0 **** 0.06
14031 C 16.779303150636395 105.70936018274242 66.6094929955047 C 0.0 **** -0.24
14032 H 16.703685603198153 105.69814620338897 65.52134902393456 H 0.0 **** 0.06
14033 H 17.606303219390668 106.35329642411278 66.90788190370716 H 0.0 **** 0.06
14034 H 16.956028371313153 104.69676128443587 66.97118290756259 H 0.0 **** 0.06
14035 H 15.85037424908188 106.089841196816 67.03369015595771 H 0.0 **** 0.06
14036 C 81.39591728599683 77.83146560692643 70.26668727259752 C 0.0 **** -0.24
14037 H 82.11031200391952 78.61179840551816 70.00700901974892 H 0.0 **** 0.06
14038 H 81.81973475752537 77.19480490143755 71.04482607700515 H 0.0 **** 0.06
14039 H 81.17662038798812 77.23057340956984 69.38423591971028 H 0.0 **** 0.06
14040 H 80.47587999176523 78.28906296883304 70.63282263325203 H 0.0 **** 0.06
14041 C 53.91331125970555 104.4466126297961 109.73652002745644 C 0.0 **** -0.24
14042 H 54.47583973436201 104.49494609158182 108.80447200225814 H 0.0 **** 0.06
14043 H 54.32067214663414 105.16840907831931 110.44534513516737 H 0.0 **** 0.06
14044 H 53.98930433464136 103.44316064168095 110.15507242835076 H 0.0 **** 0.06
14045 H 52.866082166337605 104.68033286080089 109.54102289720021 H 0.0 **** 0.06
14046 C 99.90610900190603 85.75295888786746 111.70432797744382 C 0.0 **** -0.24
14047 H 99.01954282041072 85.19783186865016 111.3983911474759 H 0.0 **** 0.06
14048 H 100.58515089226074 85.0878688103503 112.23770894416224 H 0.0 **** 0.06
14049 H 99.61223752832294 86.57427377318612 112.35857214506983 H 0.0 **** 0.06
14050 H 100.40652379599956 86.15219610705844 110.82167760107745 H 0.0 **** 0.06
14051 C 70.63700015577433 18.042432481652707 15.504353116751574 C 0.0 **** -0.24
14052 H 69.78643203871616 18.128484287405804 14.827882901343784 H 0.0 **** 0.06
14053 H 71.561772170951 18.049227739944715 14.92708322131243 H 0.0 **** 0.06
14054 H 70.56352671987358 17.110005442683605 16.063921188363835 H 0.0 **** 0.06
14055 H 70.63562805626509 18.884311106691335 16.19797301693052 H 0.0 **** 0.06
14056 C 101.52075399750458 70.26421290799306 49.590812770557335 C 0.0 **** -0.24
14057 H 102.20026020488001 69.5965410106241 50.11942174656055 H 0.0 **** 0.06
14058 H 100.6144045220131 69.7220058742381 49.322303749634884 H 0.0 **** 0.06
14059 H 102.00486161493379 70.6334193447625 48.686466923540564 H 0.0 **** 0.06
14060 H 101.2643378913379 71.10539895884264 50.235188282477694 H 0.0 **** 0.06
14061 C 88.83328405580428 1.9768415256604328 97.69196318356484 C 0.0 **** -0.24
14062 H 88.0912148689849 1.4542684057551156 98.2955894108515 H 0.0 **** 0.06
14063 H 89.59656699793177 1.2708820392275122 97.36461883753674 H 0.0 **** 0.06
14064 H 89.2977437923413 2.763611122815586 98.2871856399679 H 0.0 **** 0.06
14065 H 88.34810188523261 2.418030386504915 96.82165428439637 H 0.0 **** 0.06
14066 C 61.073333745581046 40.13360149578412 12.549420067468503 C 0.0 **** -0.24
14067 H 61.74698588872352 40.061016246623865 13.404486298524489 H 0.0 **** 0.06
14068 H 60.05647533354696 40.302156719605875 12.902488066130317 H 0.0 **** 0.06
14069 H 61.11218722413093 39.20695518552864 11.977242684781402 H 0.0 **** 0.06
14070 H 61.381378665246295 40.964814331664215 11.915218593717924 H 0.0 **** 0.06
14071 C 105.23011337733735 39.78310743430677 72.16583454987239 C 0.0 **** -0.24
14072 H 104.56480163443331 39.19174942433122 72.79522709504812 H 0.0 **** 0.06
14073 H 105.31139328722634 39.316150217372865 71.18350894850101 H 0.0 **** 0.06
14074 H 106.21610761350277 39.83542518971345 72.62727161936641 H 0.0 **** 0.06
14075 H 104.82595344460609 40.790166915010076 72.05753873959628 H 0.0 **** 0.06
14076 C 91.7405878054457 22.25634148686091 41.83254119736495 C 0.0 **** -0.24
14077 H 92.29319473319165 22.456252579512814 40.91487346555033 H 0.0 **** 0.06
14078 H 90.87453957282827 21.633443638039026 41.60579734972407 H 0.0 **** 0.06
14079 H 91.40614362164212 23.19750556281491 42.268489831512966 H 0.0 **** 0.06
14080 H 92.38687732278441 21.736897320830316 42.54008312892137 H 0.0 **** 0.06
14081 C 44.7136545978268 79.01959666883425 53.605518858247414 C 0.0 **** -0.24
14082 H 45.075503982591044 78.15451847773016 54.16017158160104 H 0.0 **** 0.06
14083 H 44.04809727161046 78.68658155131848 52.80818114436115 H 0.0 **** 0.06
14084 H 45.558429121095486 79.55456392806988 53.17307588116577 H 0.0 **** 0.06
14085 H 44.17052253785491 79.68175323471937 54.279755618795775 H 0.0 **** 0.06
14086 C 8.118230734447963 66.12008375558554 19.516985197312295 C 0.0 **** -0.24
14087 H 8.692765914106246 65.68263061743522 18.699761167632687 H 0.0 **** 0.06
14088 H 7.530437844563352 65.34180455766591 20.004577264546498 H 0.0 **** 0.06
14089 H 7.452193557868128 66.88622489407965 19.121721834952552 H 0.0 **** 0.06
14090 H 8.799854573157262 66.56783901303766 20.239829653631915 H 0.0 **** 0.06
14091 C 1.7257377251474253 25.778963231180853 88.5995472870247 C 0.0 **** -0.24
14092 H 1.96248356381615 24.91127322839594 87.98435269067522 H 0.0 **** 0.06
14093 H 1.5989426206196917 26.652542394660315 87.96110673563302 H 0.0 **** 0.06
14094 H 2.539157505892831 25.957508597684637 89.30355001320893 H 0.0 **** 0.06
14095 H 0.8029092666379043 25.593478316047026 89.14995622398237 H 0.0 **** 0.06
14096 C 115.20171856577726 54.306645515357346 98.99513228987306 C 0.0 **** -0.24
14097 H 115.79336834145369 55.16533873790074 99.31354004340591 H 0.0 **** 0.06
14098 H 115.85375889116172 53.569317873447275 98.52743869838633 H 0.0 **** 0.06
14099 H 114.44726516579402 54.632004363232056 98.27818619092156 H 0.0 **** 0.06
14100 H 114.71203475471133 53.86282033720838 99.86199268716925 H 0.0 **** 0.06
14101 C 25.47668106609376 6.845743018121254 87.12964294455557 C 0.0 **** -0.24
14102 H 25.76110735439505 6.288499482338693 88.02220066941416 H 0.0 **** 0.06
14103 H 25.20435380265542 6.1486580181017985 86.33677198010423 H 0.0 **** 0.06
14104 H 26.31547042473727 7.4603666840921505 86.80289361265946 H 0.0 **** 0.06
14105 H 24.624583227386722 7.486448343903419 87.35858611549844 H 0.0 **** 0.06
14106 C 96.45574503109836 15.528678898396322 28.810885959355943 C 0.0 **** -0.24
14107 H 96.28717234348122 16.05006647768732 27.869013799891007 H 0.0 **** 0.06
14108 H 97.37288806629454 14.941924456072332 28.742198540299853 H 0.0 **** 0.06
14109 H 95.61481384389074 14.865584371842978 29.015166112114372 H 0.0 **** 0.06
14110 H 96.54894590895964 16.2557659427938 29.617802319352933 H 0.0 **** 0.06
14111 C 46.771702389884695 23.307768701951545 79.44803077692461 C 0.0 **** -0.24
14112 H 47.43177186195527 23.912275857835198 78.82531543119637 H 0.0 **** 0.06
14113 H 47.271205975352245 23.07885037704324 80.38926375441122 H 0.0 **** 0.06
14114 H 46.53220063177639 22.379953485226594 78.9285803051747 H 0.0 **** 0.06
14115 H 45.85431883012973 23.859437842776686 79.6473932303287 H 0.0 **** 0.06
14116 C 82.19343862131964 54.691846001931 21.839234747043605 C 0.0 **** -0.24
14117 H 81.32082191578212 54.39129250846511 22.418521899760236 H 0.0 **** 0.06
14118 H 82.03847601209651 55.69619086313199 21.44455389169255 H 0.0 **** 0.06
14119 H 82.33906604568315 53.99499904245235 21.014417872260537 H 0.0 **** 0.06
14120 H 83.07506170932555 54.685420210395705 22.48071931103243 H 0.0 **** 0.06
14121 C 93.09317894107892 32.46775637292708 98.31843555911007 C 0.0 **** -0.24
14122 H 93.32463675639644 33.49567470949938 98.04009024669136 H 0.0 **** 0.06
14123 H 93.85613560090894 31.801131227227742 97.91397773646906 H 0.0 **** 0.06
14124 H 92.1191656122628 32.192017688655476 97.91379843821852 H 0.0 **** 0.06
14125 H 93.0734774310522 32.38084815506739 99.40423927446568 H 0.0 **** 0.06
14126 C 19.29262787606143 5.34142331519158 47.23633598185006 C 0.0 **** -0.24
14127 H 18.983224167734306 4.331097959240699 47.50514264651531 H 0.0 **** 0.06
14128 H 18.642409964900708 6.063479557802756 47.73189274950957 H 0.0 **** 0.06
14129 H 19.21986083797009 5.4679814180307105 46.15627905996112 H 0.0 **** 0.06
14130 H 20.322365553301665 5.501787205029224 47.55242707877119 H 0.0 **** 0.06
14131 C 26.351993568560317 105.43786873170365 68.20438223376956 C 0.0 **** -0.24
14132 H 26.398635262583355 106.42714036548605 67.74948759482527 H 0.0 **** 0.06
14133 H 27.01666156255024 104.76078316887782 67.66773843180692 H 0.0 **** 0.06
14134 H 25.330665014755084 105.06264400712297 68.15127595715731 H 0.0 **** 0.06
14135 H 26.662368734469993 105.50267224056492 69.2464271596202 H 0.0 **** 0.06
14136 C 61.46519648095523 7.173530711146938 57.425553432503115 C 0.0 **** -0.24
14137 H 62.54387487872225 7.0323515439415445 57.35544395286491 H 0.0 **** 0.06
14138 H 61.174090688911065 8.046382612696135 56.83955509493561 H 0.0 **** 0.06
14139 H 61.18532783866135 7.324894176882694 58.46805696083623 H 0.0 **** 0.06
14140 H 60.957119821436265 6.2899094381317155 57.037925283391594 H 0.0 **** 0.06
14141 C 107.39228045126822 40.22843429808556 68.54810985880158 C 0.0 **** -0.24
14142 H 106.54007667826156 39.78829593679029 69.0660576608251 H 0.0 **** 0.06
14143 H 107.27071334278813 41.31091615294599 68.5036861997136 H 0.0 **** 0.06
14144 H 107.44798255465031 39.82736126404515 67.53622021581782 H 0.0 **** 0.06
14145 H 108.30887184045397 39.98648735456496 69.08587547091378 H 0.0 **** 0.06
14146 C 55.772088189933726 95.02887942204023 48.53474409417015 C 0.0 **** -0.24
14147 H 55.81248663054856 94.61362425857544 49.54132893056379 H 0.0 **** 0.06
14148 H 55.425048939994554 96.0611376452423 48.58089261634848 H 0.0 **** 0.06
14149 H 55.084622628052074 94.44044825419994 47.926172905212525 H 0.0 **** 0.06
14150 H 56.76725023345003 94.99887825674307 48.08966379290979 H 0.0 **** 0.06
14151 C 76.73534838434989 34.56101574936963 86.35705105809603 C 0.0 **** -0.24
14152 H 77.00235031352378 33.507220043721304 86.26796324028936 H 0.0 **** 0.06
14153 H 77.644029583541 35.16307282983554 86.39075247450938 H 0.0 **** 0.06
14154 H 76.16285058822822 34.714445587949726 87.27129799825377 H 0.0 **** 0.06
14155 H 76.13459870386643 34.856999634583886 85.4969008726016 H 0.0 **** 0.06
14156 C 85.86256761619563 73.69182869493528 41.79244196912261 C 0.0 **** -0.24
14157 H 86.81627962190367 73.33783981534026 41.40193434294587 H 0.0 **** 0.06
14158 H 85.97867481985901 73.96389262086285 42.84215306159253 H 0.0 **** 0.06
14159 H 85.11651121366688 72.90156597404336 41.701911799332834 H 0.0 **** 0.06
14160 H 85.53880480935297 74.56401636949505 41.22376867261929 H 0.0 **** 0.06
14161 C 31.811721382461087 114.6386331264863 25.35230683690901 C 0.0 **** -0.24
14162 H 32.431430800383225 113.80648944004602 25.018022382835227 H 0.0 **** 0.06
14163 H 30.775723436915257 114.3103723206126 25.430639537934383 H 0.0 **** 0.06
14164 H 31.882358723966775 115.45517190617412 24.633816931728006 H 0.0 **** 0.06
14165 H 32.159518187623746 114.98040205927259 26.326767354338244 H 0.0 **** 0.06
14166 C 67.66204613063488 20.461047216578493 56.74940870793167 C 0.0 **** -0.24
14167 H 66.59288996732548 20.469470543407994 56.5360190501704 H 0.0 **** 0.06
14168 H 67.82620895879072 20.08583915928631 57.759592082664604 H 0.0 **** 0.06
14169 H 68.05689581520502 21.473595218651468 56.66902085142551 H 0.0 **** 0.06
14170 H 68.17000297824524 19.81513784106542 56.0334465102405 H 0.0 **** 0.06
14171 C 62.097464483054154 47.32011849500688 105.56358827812713 C 0.0 **** -0.24
14172 H 61.145482604364815 47.8483997952126 105.50111906522531 H 0.0 **** 0.06
14173 H 62.67275602644415 47.70784155950642 106.40442919189869 H 0.0 **** 0.06
14174 H 62.65609106064616 47.46873845624876 104.63996098907774 H 0.0 **** 0.06
14175 H 61.91286397879176 46.25585516693499 105.70972241800564 H 0.0 **** 0.06
14176 C 66.98948660296844 50.253135132930595 22.284115301735284 C 0.0 **** -0.24
14177 H 66.19946974602851 50.92096357198844 21.939707775828737 H 0.0 **** 0.06
14178 H 66.69466097205463 49.79863237906429 23.23040812609065 H 0.0 **** 0.06
14179 H 67.9093961682646 50.82169453851654 22.425291206136365 H 0.0 **** 0.06
14180 H 67.15442215537166 49.47324405535838 21.541209458534354 H 0.0 **** 0.06
14181 C 112.13928146363546 35.46702242101324 20.44125951303451 C 0.0 **** -0.24
14182 H 111.34632217422538 34.720068221658664 20.48855649574145 H 0.0 **** 0.06
14183 H 111.97994776706545 36.21468201813579 21.218928418229666 H 0.0 **** 0.06
14184 H 112.12409262077998 35.94950568964353 19.464682798311657 H 0.0 **** 0.06
14185 H 113.1036097817055 34.982815007468844 20.592735570963043 H 0.0 **** 0.06
14186 C 15.631629075976377 97.53040085340476 53.27794049059834 C 0.0 **** -0.24
14187 H 15.532211276603164 96.54874265002277 53.74047827491718 H 0.0 **** 0.06
14188 H 16.212549973364247 97.44153636451651 52.35944768677423 H 0.0 **** 0.06
14189 H 16.139440712335613 98.20655927248066 53.96610263005859 H 0.0 **** 0.06
14190 H 14.6423143416024 97.92476512659925 53.04573337064307 H 0.0 **** 0.06
14191 C 98.76577978581022 78.33601369381626 95.90066634131415 C 0.0 **** -0.24
14192 H 98.71226063969314 78.29110802584444 94.81270624437212 H 0.0 **** 0.06
14193 H 98.33660383121199 79.27665359710372 96.24611467438189 H 0.0 **** 0.06
14194 H 99.80715557151353 78.2738594257741 96.21584289449771 H 0.0 **** 0.06
14195 H 98.20667921038387 77.5032734514343 96.32623554341893 H 0.0 **** 0.06
14196 C 91.86196051060526 19.618657396443734 47.29609112589543 C 0.0 **** -0.24
14197 H 91.36191348050957 20.51706293188105 46.93520140963594 H 0.0 **** 0.06
14198 H 92.8208695496821 19.50926233376589 46.78775340001329 H 0.0 **** 0.06
14199 H 91.23950590406315 18.74783715480905 47.089789529926264 H 0.0 **** 0.06
14200 H 92.02729320413951 19.700855715695003 48.37027057708465 H 0.0 **** 0.06
14201 C 46.05294789699937 17.469512517273444 111.44833550464064 C 0.0 **** -0.24
14202 H 44.99276050446112 17.721622630711096 111.41436222095561 H 0.0 **** 0.06
14203 H 46.623969237413334 18.3421815131083 111.76767623867771 H 0.0 **** 0.06
14204 H 46.38441058725569 17.15963167419946 110.45786074700764 H 0.0 **** 0.06
14205 H 46.209625741638185 16.65475294986308 112.1551543344186 H 0.0 **** 0.06
14206 C 79.73483170145118 32.57949110021664 51.28710245616635 C 0.0 **** -0.24
14207 H 79.27868407549394 32.558597932132585 52.27593544478777 H 0.0 **** 0.06
14208 H 80.18690111460683 33.5568709660063 51.115813636516734 H 0.0 **** 0.06
14209 H 78.97298239268176 32.3935496296408 50.530326834173586 H 0.0 **** 0.06
14210 H 80.50306085702954 31.808390302526718 51.22570607915665 H 0.0 **** 0.06
14211 C 87.75504834784968 114.70525857918868 60.027843842219035 C 0.0 **** -0.24
14212 H 88.38824386088282 115.58871913130663 60.11561012699885 H 0.0 **** 0.06
14213 H 86.7120015771037 114.99239876380993 60.16209335640854 H 0.0 **** 0.06
14214 H 88.03493494454497 113.9807891171004 60.79228640092759 H 0.0 **** 0.06
14215 H 87.88608950381229 114.26080578432376 59.04154071482201 H 0.0 **** 0.06
14216 C 34.22181689403783 80.62057568213433 34.40399651217168 C 0.0 **** -0.24
14217 H 33.85455444708248 81.5748492666398 34.028636567202994 H 0.0 **** 0.06
14218 H 33.57858625589466 80.27560737754084 35.21374289205252 H 0.0 **** 0.06
14219 H 35.2393460477623 80.74395197281916 34.77637097975013 H 0.0 **** 0.06
14220 H 34.217159700725006 79.88656656998455 33.597996563075334 H 0.0 **** 0.06
14221 C 1.2118633030949013 23.706926642307344 41.466698237372924 C 0.0 **** -0.24
14222 H 1.8549016464943406 22.827598813895765 41.44296689585295 H 0.0 **** 0.06
14223 H 0.3933620589849056 23.57628655192357 40.75825494965025 H 0.0 **** 0.06
14224 H 1.791935845997898 24.58844342975285 41.19413090811028 H 0.0 **** 0.06
14225 H 0.8066242864054516 23.833449660700175 42.470498623566584 H 0.0 **** 0.06
14226 C 100.16338591737895 7.625163239050746 9.492279164324898 C 0.0 **** -0.24
14227 H 99.62480035444514 8.238953641814586 8.77057986916374 H 0.0 **** 0.06
14228 H 99.52291996780943 6.807201434982661 9.822851160971851 H 0.0 **** 0.06
14229 H 100.44483378820232 8.235899069472254 10.350293047624362 H 0.0 **** 0.06
14230 H 101.06073037011078 7.219564137803912 9.025424536409176 H 0.0 **** 0.06
14231 C 95.68238005366109 19.046055219115317 60.449773194865564 C 0.0 **** -0.24
14232 H 94.79913471139554 18.5986370887764 59.99369682035263 H 0.0 **** 0.06
14233 H 96.57905502642186 18.636968980299855 59.98111385481766 H 0.0 **** 0.06
14234 H 95.6945732545679 18.821630158172468 61.51631887097577 H 0.0 **** 0.06
14235 H 95.65815352757866 20.1267757668694 60.30551228166018 H 0.0 **** 0.06
14236 C 106.4267880198513 20.556475259798788 2.9863489564343126 C 0.0 **** -0.24
14237 H 106.10390209267928 21.52505945416118 3.3699703678244077 H 0.0 **** 0.06
14238 H 106.53119199995592 19.854665837145603 3.8137952136469835 H 0.0 **** 0.06
14239 H 107.3860670386639 20.66835160259791 2.480715264502578 H 0.0 **** 0.06
14240 H 105.68570977041577 20.180026013898043 2.281185172272785 H 0.0 **** 0.06
14241 C 17.217987053329693 102.66400448487835 110.55570830071001 C 0.0 **** -0.24
14242 H 17.94191580828857 101.88286102894111 110.78814976640784 H 0.0 **** 0.06
14243 H 16.225315291779964 102.34656398931713 110.87519113055653 H 0.0 **** 0.06
14244 H 17.213244970321682 102.84599093025437 109.48100117147607 H 0.0 **** 0.06
14245 H 17.49265623963788 103.58020825264273 111.07782555105574 H 0.0 **** 0.06
14246 C 47.50886170655508 66.04137227764676 36.63536077340023 C 0.0 **** -0.24
14247 H 47.30470339899938 67.04333500603067 36.25702219587049 H 0.0 **** 0.06
14248 H 47.65672680528985 66.0837070965629 37.71506569483975 H 0.0 **** 0.06
14249 H 48.40836127666495 65.64993348223496 36.161202463549614 H 0.0 **** 0.06
14250 H 46.66504883853338 65.38880327837347 36.408893179112646 H 0.0 **** 0.06
14251 C 100.12739941590979 83.99069690834577 47.57233161697244 C 0.0 **** -0.24
14252 H 99.5224167369002 83.09051722466137 47.676674364378194 H 0.0 **** 0.06
14253 H 100.11875919530866 84.31485572849391 46.5316465658526 H 0.0 **** 0.06
14254 H 101.15153844424441 83.77819782763919 47.87911877202066 H 0.0 **** 0.06
14255 H 99.71579262978989 84.77998065721954 48.20236340494615 H 0.0 **** 0.06
14256 C 76.11115026135028 3.6833188011412403 52.47615152743733 C 0.0 **** -0.24
14257 H 75.05803151039089 3.4142620122825065 52.56417635162749 H 0.0 **** 0.06
14258 H 76.19433496995069 4.735316800956696 52.20077077943758 H 0.0 **** 0.06
14259 H 76.57999248666039 3.067787153962911 51.70964737536604 H 0.0 **** 0.06
14260 H 76.60888487158633 3.51693018799574 53.431310693353495 H 0.0 **** 0.06
14261 C 106.32501228866514 81.24938619542812 99.60732575949956 C 0.0 **** -0.24
14262 H 106.88452069364118 82.16410445390937 99.40927559224303 H 0.0 **** 0.06
14263 H 106.75008849691798 80.74468294667491 100.47595624449832 H 0.0 **** 0.06
14264 H 106.38483023660089 80.59254827065979 98.73954542074742 H 0.0 **** 0.06
14265 H 105.28263970044813 81.49714610813513 99.80456496538389 H 0.0 **** 0.06
14266 C 77.55276402709407 12.07372192651414 36.25147663730485 C 0.0 **** -0.24
14267 H 78.0423057847425 13.047470552413543 36.25267290538784 H 0.0 **** 0.06
14268 H 78.11897938788726 11.384017426275932 35.62520285009816 H 0.0 **** 0.06
14269 H 76.54156123892102 12.175918208362077 35.859019324559654 H 0.0 **** 0.06
14270 H 77.51068605262347 11.688034358605279 37.27026146706879 H 0.0 **** 0.06
14271 C 12.44395956524911 72.79586827052265 62.092157270688006 C 0.0 **** -0.24
14272 H 12.85804954822925 73.62429082360765 62.66557983366744 H 0.0 **** 0.06
14273 H 11.417779448878278 73.0281934224208 61.805952088859954 H 0.0 **** 0.06
14274 H 12.456455515265205 71.89106292642765 62.69965467233368 H 0.0 **** 0.06
14275 H 13.045197055257123 72.63983144715667 61.195628385234556 H 0.0 **** 0.06
14276 C 61.248304593996316 89.97007601606663 75.98822986771972 C 0.0 **** -0.24
14277 H 60.6935441602462 89.04067520770897 76.11504444196518 H 0.0 **** 0.06
14278 H 62.09744518059404 89.98256390750677 76.67195153260636 H 0.0 **** 0.06
14279 H 60.59497844852107 90.81552610826145 76.2043526747691 H 0.0 **** 0.06
14280 H 61.60725058662364 90.04153884078946 74.96157082153826 H 0.0 **** 0.06
14281 C 34.24971964000062 0.3178164214220942 35.701939556430034 C 0.0 **** -0.24
14282 H 33.2296615910235 0.14654850814294207 36.04890780834725 H 0.0 **** 0.06
14283 H 34.62331225311266 -0.5834332207871711 35.21507956546412 H 0.0 **** 0.06
14284 H 34.885995334067445 0.5623751284267797 36.5519343739297 H 0.0 **** 0.06
14285 H 34.25712865528948 1.1446528581761015 34.99174551404478 H 0.0 **** 0.06
14286 C 9.454569178576008 102.53358358175419 96.70566939068101 C 0.0 **** -0.24
14287 H 9.3108588271581 102.72552440357603 97.7693089268555 H 0.0 **** 0.06
14288 H 10.19361976502752 103.22992921817948 96.30766809472775 H 0.0 **** 0.06
14289 H 8.507820075158861 102.66851952568697 96.18122542090791 H 0.0 **** 0.06
14290 H 9.80550471540981 101.51163686309803 96.56486074296421 H 0.0 **** 0.06
14291 C 111.13302634758374 51.35669760283656 18.435743224010707 C 0.0 **** -0.24
14292 H 111.27326851251368 51.72682513631449 17.42075621062412 H 0.0 **** 0.06
14293 H 110.2635129439519 51.83968816087037 18.881653002878807 H 0.0 **** 0.06
14294 H 112.01879639089479 51.58226721327517 19.030177230660115 H 0.0 **** 0.06
14295 H 110.9779023395311 50.27769230118514 18.410482269192755 H 0.0 **** 0.06
14296 C 103.8553539985011 20.91680229780505 88.39109273828404 C 0.0 **** -0.24
14297 H 104.10218903796905 20.62925210480026 87.36843669024319 H 0.0 **** 0.06
14298 H 102.95848475024786 20.38656603689273 88.7104765062665 H 0.0 **** 0.06
14299 H 103.67673367194536 21.991702786405114 88.43308964968463 H 0.0 **** 0.06
14300 H 104.6838860681475 20.660919069266782 89.05025375912572 H 0.0 **** 0.06
14301 C 56.24583934394312 72.17047473883812 114.88685128061451 C 0.0 **** -0.24
14302 H 55.371503760937486 72.68857574871879 115.28279406392451 H 0.0 **** 0.06
14303 H 55.940124744403164 71.51246692363623 114.07252496468293 H 0.0 **** 0.06
14304 H 56.705487712149704 71.57931981198078 115.67877626618125 H 0.0 **** 0.06
14305 H 56.964038492403375 72.90090606786845 114.51524667493942 H 0.0 **** 0.06
14306 C 31.169259222090233 44.42162506673558 3.210247177427078 C 0.0 **** -0.24
14307 H 32.00405550867626 45.04210836733437 2.8856126896647822 H 0.0 **** 0.06
14308 H 31.21045446083602 44.29438676623169 4.292539373957396 H 0.0 **** 0.06
14309 H 31.229717648317376 43.44681263589634 2.726218795823229 H 0.0 **** 0.06
14310 H 30.23082443140288 44.9042220228678 2.9365898974386653 H 0.0 **** 0.06
14311 C 53.06925437811631 68.28364814409002 31.282507567868564 C 0.0 **** -0.24
14312 H 52.224477721629626 67.65867339262155 30.995194411597566 H 0.0 **** 0.06
14313 H 52.77908280428272 69.33279228815678 31.228258391888858 H 0.0 **** 0.06
14314 H 53.90320197714803 68.10131184369928 30.604655189761296 H 0.0 **** 0.06
14315 H 53.37025500940476 68.04181505188228 32.30192227822676 H 0.0 **** 0.06
14316 C 92.82080862454822 6.414474827546542 107.2193795229555 C 0.0 **** -0.24
14317 H 91.8633962083652 6.171420251821502 107.67962279673893 H 0.0 **** 0.06
14318 H 93.11690090594982 7.423783537401789 107.50796286360713 H 0.0 **** 0.06
14319 H 92.72803321875702 6.358602678357016 106.13473718712203 H 0.0 **** 0.06
14320 H 93.5760752596324 5.704070608556208 107.55598780942495 H 0.0 **** 0.06
14321 C 37.23324747366951 16.051231797620886 115.79713534483703 C 0.0 **** -0.24
14322 H 38.10050135602205 16.354053139479987 115.21100237194617 H 0.0 **** 0.06
14323 H 37.34457512542531 15.009490810478695 116.09781263104111 H 0.0 **** 0.06
14324 H 36.33149229839836 16.160549134921695 115.19289167543923 H 0.0 **** 0.06
14325 H 37.1559397173628 16.680685280731524 116.68326442610287 H 0.0 **** 0.06
14326 C 46.13002364837973 104.91365811645244 53.25382176416704 C 0.0 **** -0.24
14327 H 45.1712643182054 104.41474655637353 53.39071112025326 H 0.0 **** 0.06
14328 H 46.62487407089401 105.02092271880718 54.219185603214015 H 0.0 **** 0.06
14329 H 45.96864075808719 105.89899980690905 52.81622000397908 H 0.0 **** 0.06
14330 H 46.75720046154038 104.31905509881244 52.588381642691246 H 0.0 **** 0.06
14331 C 32.30229392435502 109.79060203826745 22.129839082116273 C 0.0 **** -0.24
14332 H 32.90085586807352 109.40722645058071 22.956113078184142 H 0.0 **** 0.06
14333 H 32.412917939704265 109.13526550079914 21.265864940020624 H 0.0 **** 0.06
14334 H 32.641364858285584 110.7940587133406 21.871529968427616 H 0.0 **** 0.06
14335 H 31.25422393135741 109.82728435449161 22.427559894242528 H 0.0 **** 0.06
14336 C 15.096824737044756 93.27285752970488 55.29042066971622 C 0.0 **** -0.24
14337 H 15.651248156708874 94.15567254990637 55.607600797537884 H 0.0 **** 0.06
14338 H 14.125988756659666 93.25493219537444 55.78682294004573 H 0.0 **** 0.06
14339 H 15.658538134175444 92.3767172793263 55.55531444929996 H 0.0 **** 0.06
14340 H 14.952243165629625 93.30430330023822 54.20961106086494 H 0.0 **** 0.06
14341 C 44.24522725047575 17.998737523994066 0.6431705393314928 C 0.0 **** -0.24
14342 H 44.412782726212896 16.92159777164045 0.6466482075394424 H 0.0 **** 0.06
14343 H 43.20280556448185 18.20403330065085 0.8883861289387909 H 0.0 **** 0.06
14344 H 44.47187736727625 18.397176883393342 -0.3455674163030409 H 0.0 **** 0.06
14345 H 44.89196169344552 18.46989967471569 1.3823340309457564 H 0.0 **** 0.06
14346 C 32.51727566988558 23.76899602323266 43.64657556546993 C 0.0 **** -0.24
14347 H 32.374826992941735 23.649384290868284 42.57257585804973 H 0.0 **** 0.06
14348 H 33.5066182085414 24.18343806796986 43.837347763190536 H 0.0 **** 0.06
14349 H 32.42907715958887 22.798174733905853 44.133961445170286 H 0.0 **** 0.06
14350 H 31.757984545292118 24.443534877494926 44.04082449830463 H 0.0 **** 0.06
14351 C 35.68016246829674 90.97332954265929 89.56490820985749 C 0.0 **** -0.24
14352 H 34.97653715220932 91.48872396959311 90.21828018371474 H 0.0 **** 0.06
14353 H 35.14681748385402 90.2252553382796 88.97718535158938 H 0.0 **** 0.06
14354 H 36.444795187628955 90.48457730159012 90.16854469483786 H 0.0 **** 0.06
14355 H 36.15053827136492 91.69362392814068 88.89654865785559 H 0.0 **** 0.06
14356 C 66.43745791769774 8.896031093784842 115.56002242572653 C 0.0 **** -0.24
14357 H 66.64843985268254 8.74098689198405 114.50205084313887 H 0.0 **** 0.06
14358 H 65.9284335827708 9.85163150391665 115.6925673203569 H 0.0 **** 0.06
14359 H 67.37238363175891 8.900906112540568 116.11959374200808 H 0.0 **** 0.06
14360 H 65.79952076535113 8.090722820650939 115.92390939765507 H 0.0 **** 0.06
14361 C 69.35333558803188 106.18292326676797 10.735181067099631 C 0.0 **** -0.24
14362 H 68.99974439259063 107.082573475249 10.231605127048539 H 0.0 **** 0.06
14363 H 70.43582543504988 106.10900710998357 10.629152200094438 H 0.0 **** 0.06
14364 H 68.88292747135301 105.30778590128938 10.286810946139695 H 0.0 **** 0.06
14365 H 69.09468332493293 106.23330028923934 11.79299539179263 H 0.0 **** 0.06
14366 C 81.9531366786039 66.42206288351463 74.11271855295433 C 0.0 **** -0.24
14367 H 81.22495297168297 66.9735971348374 74.70803650747041 H 0.0 **** 0.06
14368 H 81.43746312882723 65.67178456090284 73.51156772594265 H 0.0 **** 0.06
14369 H 82.66699826538093 65.93150520622365 74.7739059133009 H 0.0 **** 0.06
14370 H 82.48142873136655 67.11280906394316 73.4556286200264 H 0.0 **** 0.06
14371 C 111.30928783992258 22.333846982664667 19.32372927918853 C 0.0 **** -0.24
14372 H 112.02780468350596 22.728758111645845 18.6053897226109 H 0.0 **** 0.06
14373 H 111.74156566966639 21.475040942633996 19.836701010219755 H 0.0 **** 0.06
14374 H 110.4038706141365 22.026904087239714 18.79982977306579 H 0.0 **** 0.06
14375 H 111.06289051079452 23.106540670560918 20.052278393657787 H 0.0 **** 0.06
14376 C 85.87406599346713 8.627793850864009 36.71551768721889 C 0.0 **** -0.24
14377 H 85.98268351845834 9.114308100070218 37.685084657607774 H 0.0 **** 0.06
14378 H 86.81825993592287 8.684260956905547 36.17360049291841 H 0.0 **** 0.06
14379 H 85.0945587203694 9.130120166826458 36.14206089706511 H 0.0 **** 0.06
14380 H 85.60085065305705 7.583140745841462 36.86207550494282 H 0.0 **** 0.06
14381 C 50.22176927593517 74.22467886097095 14.535234526471342 C 0.0 **** -0.24
14382 H 50.10482394603497 74.5213802341456 13.492485225671025 H 0.0 **** 0.06
14383 H 49.92271522258443 73.1824174776392 14.651921801471236 H 0.0 **** 0.06
14384 H 49.594970834251114 74.85486183189477 15.16522423415054 H 0.0 **** 0.06
14385 H 51.26470500134607 74.33828994278403 14.829942048600582 H 0.0 **** 0.06
14386 C 20.490725176726492 63.800676497273884 66.29194880109364 C 0.0 **** -0.24
14387 H 20.2372278875081 62.96489959543709 65.63933015717984 H 0.0 **** 0.06
14388 H 21.575190851829028 63.8716803640784 66.38489346797908 H 0.0 **** 0.06
14389 H 20.050971032376662 63.64092086664266 67.27602367132477 H 0.0 **** 0.06
14390 H 20.10118477339305 64.72546626118185 65.86608832451432 H 0.0 **** 0.06
14391 C 2.8721472463893356 70.95170568054257 61.912880523068054 C 0.0 **** -0.24
14392 H 2.3721654018654537 71.390998721366 62.776367507245766 H 0.0 **** 0.06
14393 H 2.6127414356007677 69.89506039324914 61.8417442391102 H 0.0 **** 0.06
14394 H 3.9511171992986824 71.05475593034126 62.025992955011475 H 0.0 **** 0.06
14395 H 2.5512365388132814 71.46645607259407 61.007231960027866 H 0.0 **** 0.06
14396 C 22.28280199571435 59.1419833963256 30.44742113481073 C 0.0 **** -0.24
14397 H 23.142826096659917 59.60781314836481 29.966502074359582 H 0.0 **** 0.06
14398 H 22.493314891167586 58.99977724228489 31.50825090442732 H 0.0 **** 0.06
14399 H 22.086772186554185 58.17598579080641 29.982449214701973 H 0.0 **** 0.06
14400 H 21.41068548804276 59.784165613063465 30.332980558363573 H 0.0 **** 0.06
14401 C 39.96599807608487 41.08625128543326 92.71550625867127 C 0.0 **** -0.24
14402 H 40.967200249213704 41.04787493346146 93.14523344542627 H 0.0 **** 0.06
14403 H 39.33031277099471 41.72250365270429 93.33183581527942 H 0.0 **** 0.06
14404 H 39.54729426596117 40.07979823203493 92.67982126088296 H 0.0 **** 0.06
14405 H 40.01908835224293 41.49390174801215 91.70549806715505 H 0.0 **** 0.06
14406 C 41.775459413511236 59.80105046367402 19.841476910556505 C 0.0 **** -0.24
14407 H 41.31288035638292 60.57856895419573 19.233436956848536 H 0.0 **** 0.06
14408 H 41.829766952969095 58.87539602292878 19.26666595544603 H 0.0 **** 0.06
14409 H 41.17922551875478 59.63752494825536 20.73900880202759 H 0.0 **** 0.06
14410 H 42.781175477139534 60.11176120162165 20.125173975140143 H 0.0 **** 0.06
14411 C 48.334286963818045 15.224461323568988 31.793404223142858 C 0.0 **** -0.24
14412 H 47.69384086762818 14.890213678875426 30.975990381393416 H 0.0 **** 0.06
14413 H 47.72089642653705 15.460632856711328 32.662671152638666 H 0.0 **** 0.06
14414 H 48.88316789526729 16.113977103456847 31.482377806134053 H 0.0 **** 0.06
14415 H 49.03887005902132 14.433838355501052 32.04908542991629 H 0.0 **** 0.06
14416 C 110.79600079049612 44.064940132864805 18.203144738081193 C 0.0 **** -0.24
14417 H 111.33880727016626 43.48614433606602 18.95084491270876 H 0.0 **** 0.06
14418 H 111.21274605500955 45.07084161531051 18.150794320253908 H 0.0 **** 0.06
14419 H 109.7432801912608 44.12179689814042 18.481117127762133 H 0.0 **** 0.06
14420 H 110.88974869435864 43.58162019855547 17.2309415156262 H 0.0 **** 0.06
14421 C 110.80737044557338 50.44368444448003 73.24976128964485 C 0.0 **** -0.24
14422 H 110.60535114403132 50.6990121613606 74.29106002297857 H 0.0 **** 0.06
14423 H 110.43016081181077 51.23575779516466 72.60262244432138 H 0.0 **** 0.06
14424 H 110.31056374975338 49.50569925434911 73.00390402222459 H 0.0 **** 0.06
14425 H 111.8823791486322 50.335300348660155 73.10490564717324 H 0.0 **** 0.06
14426 C 89.0276664221665 42.27869690221667 69.13459503727958 C 0.0 **** -0.24
14427 H 88.23615290071683 42.502800646428796 69.8487390998452 H 0.0 **** 0.06
14428 H 88.87501112615192 42.865162069956796 68.22791703324671 H 0.0 **** 0.06
14429 H 89.00624256541292 41.217325288799984 68.88837307978582 H 0.0 **** 0.06
14430 H 89.99400043720374 42.531600587302016 69.57233278599949 H 0.0 **** 0.06
14431 C 102.81264468412763 37.01692238884461 44.2849749392704 C 0.0 **** -0.24
14432 H 103.66197476888323 37.36566197340508 43.69807031670251 H 0.0 **** 0.06
14433 H 103.04670817909397 37.09856984468207 45.346946221507665 H 0.0 **** 0.06
14434 H 102.6032800143135 35.97672695245468 44.03724968319568 H 0.0 **** 0.06
14435 H 101.93873476074123 37.628073760278404 44.05720648149759 H 0.0 **** 0.06
14436 C 105.3901161023806 91.33232276049606 15.371119465806686 C 0.0 **** -0.24
14437 H 105.46345465129235 91.67855821831176 16.402234130008424 H 0.0 **** 0.06
14438 H 106.38975208542459 91.14354602174836 14.978565950865743 H 0.0 **** 0.06
14439 H 104.89952672691868 92.0945285585282 14.766196891984947 H 0.0 **** 0.06
14440 H 104.8056295696673 90.41250658588305 15.3382302288978 H 0.0 **** 0.06
14441 C 85.47998789252381 86.48113123401728 82.3922221769939 C 0.0 **** -0.24
14442 H 84.4530389050638 86.1179206464127 82.36281518223402 H 0.0 **** 0.06
14443 H 85.73206431069275 86.93488139002343 81.43321472130066 H 0.0 **** 0.06
14444 H 86.15403392150168 85.64733947996208 82.58904757595073 H 0.0 **** 0.06
14445 H 85.57989980493645 87.22405639449593 83.18404906958904 H 0.0 **** 0.06
14446 C 57.551011252953145 7.637290177267047 80.59834643247189 C 0.0 **** -0.24
14447 H 56.805330766757066 8.411159489295386 80.78344350938892 H 0.0 **** 0.06
14448 H 57.65873671344883 7.487408399380399 79.52408173335832 H 0.0 **** 0.06
14449 H 57.23094852076582 6.7053400791353255 81.06513961120501 H 0.0 **** 0.06
14450 H 58.50748060001254 7.945728308498744 81.02010733387948 H 0.0 **** 0.06
14451 C 12.410419850495451 89.8410855995619 110.36675882861363 C 0.0 **** -0.24
14452 H 12.222890950019732 89.79524598767557 111.43890691977992 H 0.0 **** 0.06
14453 H 11.615151902185364 90.40864063659168 109.88292810606026 H 0.0 **** 0.06
14454 H 12.435201607029537 88.83027769271521 109.95930794765263 H 0.0 **** 0.06
14455 H 13.367276049294297 90.32938479314026 110.18572567958103 H 0.0 **** 0.06
14456 C 15.581170497876315 111.117561768586 66.45902150502559 C 0.0 **** -0.24
14457 H 16.022789909682416 111.93952822991284 65.8953776358407 H 0.0 **** 0.06
14458 H 16.31982083956791 110.32606815486767 66.58364280373593 H 0.0 **** 0.06
14459 H 14.718614721908295 110.72898374010714 65.91891361424456 H 0.0 **** 0.06
14460 H 15.264622853145482 111.47781869382831 67.43805190500456 H 0.0 **** 0.06
14461 C 50.98935455036218 48.99854702789224 0.1160286544624114 C 0.0 **** -0.24
14462 H 50.638320402024654 49.127039474402295 -0.9076586308533763 H 0.0 **** 0.06
14463 H 50.13566269385557 48.971217140546685 0.7918564068305329 H 0.0 **** 0.06
14464 H 51.639602695481535 49.83145954750057 0.38370767199683087 H 0.0 **** 0.06
14465 H 51.54620349074571 48.0641840387554 0.19439378931485862 H 0.0 **** 0.06
14466 C 94.2786291524655 18.51308968112305 1.789950280743824 C 0.0 **** -0.24
14467 H 94.63650446879288 19.412475070868908 1.2891418092564209 H 0.0 **** 0.06
14468 H 94.12070580656618 17.72533653213594 1.0535039869906484 H 0.0 **** 0.06
14469 H 93.33846797852641 18.72893217817318 2.298296614911351 H 0.0 **** 0.06
14470 H 95.01877189475209 18.185404009264403 2.5202555675116116 H 0.0 **** 0.06
14471 C 82.75994312743995 71.87619834827458 58.19727720682878 C 0.0 **** -0.24
14472 H 81.69257709772438 71.65635661922644 58.2324536300384 H 0.0 **** 0.06
14473 H 83.27129359867877 71.31476983093663 58.97978390503844 H 0.0 **** 0.06
14474 H 82.91645390963978 72.94378571805584 58.35299352092736 H 0.0 **** 0.06
14475 H 83.15816288277841 71.5882037187099 57.22460919764985 H 0.0 **** 0.06
14476 C 104.9672574753094 83.6544788329698 18.853805969560142 C 0.0 **** -0.24
14477 H 105.20549181071016 84.55107622162024 18.282241936037053 H 0.0 **** 0.06
14478 H 104.04438430103218 83.81480387485416 19.41281227901436 H 0.0 **** 0.06
14479 H 105.77919647920703 83.43866335121456 19.5477862704484 H 0.0 **** 0.06
14480 H 104.83772164346462 82.81280971539186 18.17321170934406 H 0.0 **** 0.06
14481 C 91.1381685242435 60.83699061510862 80.34025667792818 C 0.0 **** -0.24
14482 H 92.21500187666288 60.842727968410884 80.1652135306029 H 0.0 **** 0.06
14483 H 90.82359794569041 59.83519682692307 80.63161467694061 H 0.0 **** 0.06
14484 H 90.62082841012253 61.13056030036512 79.42691719761461 H 0.0 **** 0.06
14485 H 90.89660191303682 61.54102722035279 81.13670191163541 H 0.0 **** 0.06
14486 C 13.878582259855513 47.0878112998274 88.70461689919063 C 0.0 **** -0.24
14487 H 13.25622187052464 46.974690354626006 89.59229824014875 H 0.0 **** 0.06
14488 H 13.391655799109081 47.76631244686748 88.00335956724282 H 0.0 **** 0.06
14489 H 14.015669197401436 46.114833440632836 88.23158382601238 H 0.0 **** 0.06
14490 H 14.848246289651854 47.49439703493678 88.98998264740146 H 0.0 **** 0.06
14491 C 22.125512221077656 8.215141206461993 34.82861143011087 C 0.0 **** -0.24
14492 H 23.03099079221289 8.799975868492012 34.99012593474754 H 0.0 **** 0.06
14493 H 21.264424681949862 8.766245100982132 35.206420512175214 H 0.0 **** 0.06
14494 H 22.209314056513364 7.264234946146232 35.3554696118689 H 0.0 **** 0.06
14495 H 21.999227606276747 8.028579198912666 33.76229217185028 H 0.0 **** 0.06
14496 C 10.005290364696322 61.24890450198217 78.60810265177972 C 0.0 **** -0.24
14497 H 10.400270826827153 62.16052457170207 79.05750369947492 H 0.0 **** 0.06
14498 H 9.280901147378586 60.795109992135565 79.28541708884265 H 0.0 **** 0.06
14499 H 10.821880535746715 60.55014564372479 78.42740540639014 H 0.0 **** 0.06
14500 H 9.517401957657924 61.490871943326596 77.66328060886892 H 0.0 **** 0.06
14501 C 13.09414536382431 51.50250748697101 19.679768628947954 C 0.0 **** -0.24
14502 H 12.3583399107969 51.00943645721449 19.04507955780798 H 0.0 **** 0.06
14503 H 13.040307303869525 51.088815853025466 20.687441065007704 H 0.0 **** 0.06
14504 H 12.884882551696194 52.57242254310282 19.713957879525083 H 0.0 **** 0.06
14505 H 14.092347112526738 51.34056960972771 19.272426776791917 H 0.0 **** 0.06
14506 C 2.6929629339291523 48.89067744447959 43.214868186368754 C 0.0 **** -0.24
14507 H 2.448379622162747 48.480778516208034 42.23401756462496 H 0.0 **** 0.06
14508 H 1.7989596558663834 49.32893394613336 43.658807776527 H 0.0 **** 0.06
14509 H 3.459293973435024 49.65893199292458 43.10522908282793 H 0.0 **** 0.06
14510 H 3.065672417718872 48.09419453216685 43.85784368809328 H 0.0 **** 0.06
14511 C 111.37375288519024 44.79235212875249 24.74290316587596 C 0.0 **** -0.24
14512 H 112.43680865009944 44.960656819990575 24.565770348939225 H 0.0 **** 0.06
14513 H 111.04649560602326 45.398350079296435 25.587594296916535 H 0.0 **** 0.06
14514 H 111.20491572425648 43.73887938762344 24.964224459765234 H 0.0 **** 0.06
14515 H 110.80972183728996 45.07157285840282 23.853382124907625 H 0.0 **** 0.06
14516 C 67.49928968617877 47.158922647495984 73.61519393285948 C 0.0 **** -0.24
14517 H 67.64804118185444 48.14509013509564 73.17406276095682 H 0.0 **** 0.06
14518 H 66.51965410884401 46.776375258987 73.32603707976264 H 0.0 **** 0.06
14519 H 67.55338657686895 47.23600590925119 74.70157587306628 H 0.0 **** 0.06
14520 H 68.2744574168592 46.48158910638277 73.25924993777724 H 0.0 **** 0.06
14521 C 20.497327920435342 104.57933153129434 49.06836192119039 C 0.0 **** -0.24
14522 H 21.244941426165802 103.9503751962568 49.551728182929565 H 0.0 **** 0.06
14523 H 19.513939512755947 104.35928474380916 49.48391771716953 H 0.0 **** 0.06
14524 H 20.492571883961258 104.37957300718503 47.99717900764239 H 0.0 **** 0.06
14525 H 20.738979278664363 105.6281873463455 49.24148062774535 H 0.0 **** 0.06
14526 C 58.687728221217526 52.150395264617885 63.23728349772082 C 0.0 **** -0.24
14527 H 57.680782457227764 51.758184179277805 63.09231902705263 H 0.0 **** 0.06
14528 H 58.72133250207074 53.190431645201784 62.9128069285811 H 0.0 **** 0.06
14529 H 59.395013457825314 51.56353284459067 62.65149254320672 H 0.0 **** 0.06
14530 H 58.9521352326623 52.08998096344379 64.29350509921659 H 0.0 **** 0.06
14531 C 111.69505321751932 2.98557309081251 76.69638346169066 C 0.0 **** -0.24
14532 H 111.83554413098182 2.125506685962854 77.35039033782706 H 0.0 **** 0.06
14533 H 110.72560303599764 3.4417973579995937 76.89959713403084 H 0.0 **** 0.06
14534 H 111.73196544220902 2.660603634142676 75.65642176645676 H 0.0 **** 0.06
14535 H 112.4850106800989 3.71421465172139 76.87834677105724 H 0.0 **** 0.06
14536 C 31.107622051978893 56.57279888822966 112.45626585806495 C 0.0 **** -0.24
14537 H 31.82988182631916 57.24415227746588 112.9217156013783 H 0.0 **** 0.06
14538 H 31.584241244952437 55.61484821222583 112.24925235956235 H 0.0 **** 0.06
14539 H 30.752089174855676 57.01193678202156 111.52451416988754 H 0.0 **** 0.06
14540 H 30.2652428149796 56.42175918681766 113.13199231775229 H 0.0 **** 0.06
14541 C 80.68462215376127 105.91402978080185 32.073453123771124 C 0.0 **** -0.24
14542 H 80.10444569825381 105.8504901326126 32.99482223744903 H 0.0 **** 0.06
14543 H 80.15075350343184 105.40222993049198 31.273406199875673 H 0.0 **** 0.06
14544 H 81.65564485358337 105.44209024367984 32.222788129732685 H 0.0 **** 0.06
14545 H 80.82636446851023 106.9608721465502 31.80565447071065 H 0.0 **** 0.06
14546 C 83.66286390306325 116.42223521710588 45.13693213348273 C 0.0 **** -0.24
14547 H 84.68074493292323 116.57363290017526 45.497513565706754 H 0.0 **** 0.06
14548 H 83.17929141679244 117.38888734349308 45.00073665924606 H 0.0 **** 0.06
14549 H 83.10348699416858 115.8345334098533 45.86540799125362 H 0.0 **** 0.06
14550 H 83.68999432745451 115.89168342254152 44.1853767362262 H 0.0 **** 0.06
14551 C 42.54153617291598 53.03740424368103 10.942087261858177 C 0.0 **** -0.24
14552 H 42.43758938778285 53.80179650226981 10.171672738832683 H 0.0 **** 0.06
14553 H 41.79176319937733 52.2617920362772 10.786565087824954 H 0.0 **** 0.06
14554 H 42.400552582519765 53.48836168116797 11.923404678897214 H 0.0 **** 0.06
14555 H 43.53719430943693 52.59695983842791 10.883609884257709 H 0.0 **** 0.06
14556 C 64.51728902797637 44.92243741594335 20.3151851891256 C 0.0 **** -0.24
14557 H 65.52537886204064 44.83278095719007 20.71916852460788 H 0.0 **** 0.06
14558 H 64.54200546697015 44.76158299989521 19.237177792228323 H 0.0 **** 0.06
14559 H 64.129136712637 45.91909377359487 20.526362550505354 H 0.0 **** 0.06
14560 H 63.872763320460486 44.17536391172115 20.779488770202505 H 0.0 **** 0.06
14561 C 103.49015103483697 3.9375776237131817 3.513436480856356 C 0.0 **** -0.24
14562 H 102.84110883976214 4.8008928985723 3.6634997598117565 H 0.0 **** 0.06
14563 H 103.54595224135863 3.7062903335053363 2.449540150332311 H 0.0 **** 0.06
14564 H 103.0836025589918 3.0801501104149764 4.05113755731017 H 0.0 **** 0.06
14565 H 104.48786475801495 4.163368360169159 3.890302312282344 H 0.0 **** 0.06
14566 C 86.11782727578552 77.11256178981199 34.31384099237809 C 0.0 **** -0.24
14567 H 85.91661306228247 76.58226774769395 35.244887210456994 H 0.0 **** 0.06
14568 H 87.19147126559474 77.1203764995725 34.126633988566084 H 0.0 **** 0.06
14569 H 85.75493155012657 78.13755306318518 34.395238749636476 H 0.0 **** 0.06
14570 H 85.60798754377666 76.6102331852108 33.49232877042289 H 0.0 **** 0.06
14571 C 67.2949286384133 65.08672912434696 101.03501496768388 C 0.0 **** -0.24
14572 H 66.53050635124322 65.1362425024447 101.80966707445057 H 0.0 **** 0.06
14573 H 67.95991151807809 64.24608801539492 101.2343596212173 H 0.0 **** 0.06
14574 H 67.87067465936045 66.01301552845266 101.03299928316133 H 0.0 **** 0.06
14575 H 66.81927252268193 64.95204085370915 100.0636302409315 H 0.0 **** 0.06
14576 C 43.06599770399953 18.305366980693677 107.85382184542189 C 0.0 **** -0.24
14577 H 44.05938204562665 18.742428075316596 107.75212071939853 H 0.0 **** 0.06
14578 H 43.13604366578045 17.221093032172405 107.76567681694482 H 0.0 **** 0.06
14579 H 42.41713395465297 18.692930086717638 107.06823184098272 H 0.0 **** 0.06
14580 H 42.65195403208628 18.56571294976888 108.8281435599265 H 0.0 **** 0.06
14581 C 113.51062045736182 45.302522255840046 67.64952165178434 C 0.0 **** -0.24
14582 H 113.1767019370375 44.65314191860617 68.45808673831914 H 0.0 **** 0.06
14583 H 112.90504090459862 45.118575614734624 66.76136114904261 H 0.0 **** 0.06
14584 H 114.55748993923103 45.094037441009874 67.42550285501241 H 0.0 **** 0.06
14585 H 113.40537918478677 46.34394430743683 67.95257827037972 H 0.0 **** 0.06
14586 C 21.316876197156432 41.05977545802493 76.08625803796619 C 0.0 **** -0.24
14587 H 22.346637811546998 40.71054989048666 76.16190514666908 H 0.0 **** 0.06
14588 H 20.72672445537154 40.3319938204863 75.52919360318646 H 0.0 **** 0.06
14589 H 21.29666801665803 42.01870865645152 75.56735748826077 H 0.0 **** 0.06
14590 H 20.89955561184746 41.17780685455509 77.0857589259152 H 0.0 **** 0.06
14591 C 102.72014391480795 27.23751799190964 28.217266457930293 C 0.0 **** -0.24
14592 H 101.94907814184154 26.60868501090163 28.66285219072131 H 0.0 **** 0.06
14593 H 102.94159646124174 26.88260437502337 27.2105266284222 H 0.0 **** 0.06
14594 H 103.62304146873984 27.19007311110458 28.82664318625575 H 0.0 **** 0.06
14595 H 102.36647191404421 28.267394754677078 28.17151803241285 H 0.0 **** 0.06
14596 C 99.71810541229704 54.957769404854965 16.4496190040407 C 0.0 **** -0.24
14597 H 98.78387739849455 54.627156308669996 16.90212081744636 H 0.0 **** 0.06
14598 H 99.85820960042844 56.02241159470341 16.64248661750264 H 0.0 **** 0.06
14599 H 99.68227333602164 54.785599679838995 15.373680975875004 H 0.0 **** 0.06
14600 H 100.54832679331696 54.39807658866794 16.879701949547695 H 0.0 **** 0.06
14601 C 44.31836390602132 32.14996037333961 3.0914130067492067 C 0.0 **** -0.24
14602 H 44.91179352011348 31.41536476050092 3.6345911269258977 H 0.0 **** 0.06
14603 H 43.59770459948683 32.60795451605702 3.7690895586646036 H 0.0 **** 0.06
14604 H 43.78823842431618 31.656760656814782 2.2761829633768116 H 0.0 **** 0.06
14605 H 44.97549404813219 32.918658353471926 2.684932567262237 H 0.0 **** 0.06
14606 C 29.71067140747698 3.0120070188433203 31.730879540722157 C 0.0 **** -0.24
14607 H 30.402656467441318 2.9038761117859053 32.566414926610754 H 0.0 **** 0.06
14608 H 28.85029410913367 3.60329813596627 32.046747826942116 H 0.0 **** 0.06
14609 H 29.37579144656108 2.0273403608128007 31.405808920848052 H 0.0 **** 0.06
14610 H 30.214248513999664 3.514989825397393 30.905399466242088 H 0.0 **** 0.06
14611 C 43.308449443247525 2.308774916127618 85.90489403781785 C 0.0 **** -0.24
14612 H 44.04579713488042 3.0166130077720084 85.52581014021158 H 0.0 **** 0.06
14613 H 42.6812992423186 2.8018750507042682 86.64775395721261 H 0.0 **** 0.06
14614 H 43.820422756208416 1.4632195715944647 86.36520643354925 H 0.0 **** 0.06
14615 H 42.68759645734701 1.9538383935879722 85.08255616595599 H 0.0 **** 0.06
14616 C 46.395179858537745 104.05471739939381 113.8557158446579 C 0.0 **** -0.24
14617 H 47.44895333061166 104.20488699062142 113.62271910481184 H 0.0 **** 0.06
14618 H 46.24758707399948 104.12385852558123 114.934342726414 H 0.0 **** 0.06
14619 H 46.082767732271066 103.06978016158808 113.5083194101113 H 0.0 **** 0.06
14620 H 45.80057958077049 104.82176904554231 113.35899129417535 H 0.0 **** 0.06
14621 C 26.11743312799112 81.0334482349266 78.9277914026602 C 0.0 **** -0.24
14622 H 26.298621820523564 80.01813061151037 78.5748512433627 H 0.0 **** 0.06
14623 H 25.049543177503892 81.24919463267145 78.88055187919389 H 0.0 **** 0.06
14624 H 26.658655939160553 81.73915130037582 78.29767235773977 H 0.0 **** 0.06
14625 H 26.461709819739042 81.12683770601075 79.95751850315906 H 0.0 **** 0.06
14626 C 75.04527509405227 31.678946708198993 12.414339653093847 C 0.0 **** -0.24
14627 H 74.94414693564272 32.76096648223002 12.50625998421441 H 0.0 **** 0.06
14628 H 75.81688930527895 31.327214040514775 13.099679455667172 H 0.0 **** 0.06
14629 H 75.32532203238748 31.426179077877208 11.391499867573529 H 0.0 **** 0.06
14630 H 74.09588683020056 31.2033324025293 12.659673916298885 H 0.0 **** 0.06
14631 C 108.06175700265936 57.29497235647059 4.321798095101714 C 0.0 **** -0.24
14632 H 108.8014898970987 56.56802724966227 3.986595146475013 H 0.0 **** 0.06
14633 H 108.23635261763317 58.24842683798031 3.822223327849592 H 0.0 **** 0.06
14634 H 108.14670187850098 57.429155164397336 5.400019449367983 H 0.0 **** 0.06
14635 H 107.06248361740438 56.934280173842346 4.078354456714175 H 0.0 **** 0.06
14636 C 110.48122648346543 30.740283704889293 38.730572206664476 C 0.0 **** -0.24
14637 H 110.68855518158779 29.904807622023554 39.39909631330153 H 0.0 **** 0.06
14638 H 109.89356024730415 31.49125009837411 39.26026828857431 H 0.0 **** 0.06
14639 H 109.92125483123931 30.382923137104683 37.86727211449249 H 0.0 **** 0.06
14640 H 111.4208466010071 31.180792823825357 38.398422139531476 H 0.0 **** 0.06
14641 C 6.97033581518761 111.60269581674957 5.073526189727847 C 0.0 **** -0.24
14642 H 6.670850287031726 112.42532214443779 5.723187124167804 H 0.0 **** 0.06
14643 H 8.029727464094265 111.69640794952298 4.83529033819204 H 0.0 **** 0.06
14644 H 6.386391526223576 111.63586681352258 4.154041722673009 H 0.0 **** 0.06
14645 H 6.794109503911841 110.65600574583638 5.582576348232539 H 0.0 **** 0.06
14646 C 21.209530920413926 61.813516696771046 50.95552260293577 C 0.0 **** -0.24
14647 H 20.463489476350844 61.43854095325213 51.65560350832148 H 0.0 **** 0.06
14648 H 21.667013424727543 62.71682407207021 51.36108468698423 H 0.0 **** 0.06
14649 H 20.72993982986543 62.044643884893844 50.00434303105171 H 0.0 **** 0.06
14650 H 21.97637360662688 61.054547578287725 50.80128537128964 H 0.0 **** 0.06
14651 C 85.03073017492835 24.09672306440143 46.036262072283705 C 0.0 **** -0.24
14652 H 84.26937790943242 24.86700683261276 45.92166933781522 H 0.0 **** 0.06
14653 H 85.19057315130004 23.899213956406584 47.096216476088415 H 0.0 **** 0.06
14654 H 85.96320631506 24.437036517638006 45.584942872804774 H 0.0 **** 0.06
14655 H 84.70044228094179 23.18295870569645 45.541933651778336 H 0.0 **** 0.06
14656 C 50.46194350339647 72.24590439557267 38.43123222652093 C 0.0 **** -0.24
14657 H 49.63540328267908 72.8062875243001 38.86857076675688 H 0.0 **** 0.06
14658 H 50.57748718491328 72.52822382617046 37.384568293541044 H 0.0 **** 0.06
14659 H 50.25090213449033 71.17772168616679 38.49803279711511 H 0.0 **** 0.06
14660 H 51.380051083384274 72.46998669903121 38.97249227649799 H 0.0 **** 0.06
14661 C 19.124711263210468 99.17843895870081 107.74509633726757 C 0.0 **** -0.24
14662 H 18.607565039877695 98.29692421778833 107.36692907711645 H 0.0 **** 0.06
14663 H 20.187778008550293 99.10308770517818 107.51367827221642 H 0.0 **** 0.06
14664 H 18.991666865614555 99.242135596379 108.82577389329415 H 0.0 **** 0.06
14665 H 18.712730121470994 100.07118830327539 107.2750153986288 H 0.0 **** 0.06
14666 C 97.65849813066129 67.1572183678669 107.77461073280404 C 0.0 **** -0.24
14667 H 97.3222201051382 68.04395170843713 108.31275577684647 H 0.0 **** 0.06
14668 H 96.84199433834516 66.4363162879977 107.71831865962889 H 0.0 **** 0.06
14669 H 98.50221498712 66.71163084485502 108.30054659164017 H 0.0 **** 0.06
14670 H 97.96477087101115 67.43938073704993 106.76746608019909 H 0.0 **** 0.06
14671 C 56.646582121652244 28.61691463408087 68.18920786102362 C 0.0 **** -0.24
14672 H 55.951504664083586 29.33214972645831 67.74911119898502 H 0.0 **** 0.06
14673 H 56.52680505452179 27.649426096428357 67.70372023861543 H 0.0 **** 0.06
14674 H 56.43850435805561 28.518365517323076 69.25509938504396 H 0.0 **** 0.06
14675 H 57.66838304271917 28.970910451080556 68.05048931387171 H 0.0 **** 0.06
14676 C 59.546408775579 59.628619596538584 109.16298994311359 C 0.0 **** -0.24
14677 H 59.20284467828828 60.124617640785885 108.25596263489183 H 0.0 **** 0.06
14678 H 59.67152750648729 58.56254233550172 108.96892128851863 H 0.0 **** 0.06
14679 H 58.81064121440196 59.76970742855735 109.95517952063483 H 0.0 **** 0.06
14680 H 60.49989283637611 60.05611697334314 109.4723830188538 H 0.0 **** 0.06
14681 C 57.521024669388055 96.13176164201363 2.6188707018657453 C 0.0 **** -0.24
14682 H 57.22372868863238 97.17142539494543 2.760452541290533 H 0.0 **** 0.06
14683 H 57.47346593269202 95.60741587059158 3.57280864079263 H 0.0 **** 0.06
14684 H 58.53953329212126 96.09443563036922 2.233517785619597 H 0.0 **** 0.06
14685 H 56.84634882564987 95.65610927466952 1.9071282686634703 H 0.0 **** 0.06
14686 C 115.1341763115231 92.23592666888547 16.49460289242171 C 0.0 **** -0.24
14687 H 114.86337455230213 91.19186990880578 16.654493178495215 H 0.0 **** 0.06
14688 H 115.60083495131472 92.63275928963543 17.396375907065988 H 0.0 **** 0.06
14689 H 114.23820232675854 92.81277554273635 16.264811740010543 H 0.0 **** 0.06
14690 H 115.83401764233597 92.30569596732488 15.661984546393683 H 0.0 **** 0.06
14691 C 7.494973751259707 4.511301262027075 47.817420112877386 C 0.0 **** -0.24
14692 H 8.237900219282338 5.137451631622781 47.32325217679738 H 0.0 **** 0.06
14693 H 7.736894261143348 4.4296232837511695 48.87764754523948 H 0.0 **** 0.06
14694 H 7.497655129270896 3.5193584628312635 47.366212592654406 H 0.0 **** 0.06
14695 H 6.508376000726315 4.960804174145721 47.702624620186384 H 0.0 **** 0.06
14696 C 37.01724968962682 63.80395248801199 40.46258532461739 C 0.0 **** -0.24
14697 H 36.26883986850439 64.50132980164565 40.085155021125075 H 0.0 **** 0.06
14698 H 36.94462419826485 62.863570635066196 39.91600917475344 H 0.0 **** 0.06
14699 H 36.84202374345074 63.623007872292305 41.523798765512424 H 0.0 **** 0.06
14700 H 38.010831635967435 64.22925073103414 40.32542040292847 H 0.0 **** 0.06
14701 C 9.33329207160375 17.428552396451664 32.21457604480602 C 0.0 **** -0.24
14702 H 8.698803478748559 18.312452034607418 32.158472955796086 H 0.0 **** 0.06
14703 H 9.03893289376613 16.720082112814367 31.4402140471758 H 0.0 **** 0.06
14704 H 9.222373335504187 16.96378964028972 33.19391589377318 H 0.0 **** 0.06
14705 H 10.373058578395728 17.717885798095182 32.065701282478955 H 0.0 **** 0.06
14706 C 48.55775142256001 79.24843579253081 76.2826847571312 C 0.0 **** -0.24
14707 H 48.313031814162 80.30937351210164 76.33802424639325 H 0.0 **** 0.06
14708 H 47.860638632839375 78.74947688980441 75.61002161973661 H 0.0 **** 0.06
14709 H 48.48541401662926 78.80582458186504 77.27614365457501 H 0.0 **** 0.06
14710 H 49.574073341344835 79.12953939202401 75.90547865970697 H 0.0 **** 0.06
14711 C 77.67213775154599 39.857383890942856 14.534101448622568 C 0.0 **** -0.24
14712 H 77.41078412018558 40.21812263482428 13.539417685948884 H 0.0 **** 0.06
14713 H 78.74127081826475 39.99245695594948 14.699406463193405 H 0.0 **** 0.06
14714 H 77.42255376391617 38.79889292515378 14.612744432230912 H 0.0 **** 0.06
14715 H 77.11407479145424 40.4198619122468 15.282614088795828 H 0.0 **** 0.06
14716 C 41.91541940543175 57.94246355156503 101.91133027706277 C 0.0 **** -0.24
14717 H 40.85397707132819 57.99512357129612 101.66797438327 H 0.0 **** 0.06
14718 H 42.4987450592522 58.337033456637755 101.07897111421363 H 0.0 **** 0.06
14719 H 42.19526564914804 56.90388660154093 102.0908937134432 H 0.0 **** 0.06
14720 H 42.112951636667844 58.53197134906273 102.80604222980233 H 0.0 **** 0.06
14721 C 20.60397599251497 49.829041149028086 68.14610987469851 C 0.0 **** -0.24
14722 H 20.630791200610727 50.037669805394984 67.0766497365436 H 0.0 **** 0.06
14723 H 19.922240479560504 48.999062156018 68.3370591930753 H 0.0 **** 0.06
14724 H 20.257481154843948 50.714000853648656 68.68030987636061 H 0.0 **** 0.06
14725 H 21.604331154983164 49.56504258755601 68.48956917253125 H 0.0 **** 0.06
14726 C 70.86218158770998 14.674120400603545 46.13246414684692 C 0.0 **** -0.24
14727 H 70.37096486328622 14.323293471701106 45.22473644822859 H 0.0 **** 0.06
14728 H 70.78011197187317 15.759254798516793 46.19367587683492 H 0.0 **** 0.06
14729 H 71.91424767207093 14.389795876987783 46.10915123390397 H 0.0 **** 0.06
14730 H 70.38222085951281 14.223276676377704 47.00136323784283 H 0.0 **** 0.06
14731 C 45.81808301009514 69.88241010071692 56.07693363242878 C 0.0 **** -0.24
14732 H 46.060561640064435 69.28344983313701 55.19902891855875 H 0.0 **** 0.06
14733 H 44.89122696823023 69.51873712917512 56.51873191222017 H 0.0 **** 0.06
14734 H 45.696673436616976 70.92566846070395 55.78279630973375 H 0.0 **** 0.06
14735 H 46.62495423696069 69.80278858830678 56.805223536916195 H 0.0 **** 0.06
14736 C 44.07947950089796 74.18239515438168 35.87683454417299 C 0.0 **** -0.24
14737 H 43.72094539718543 75.20216752150489 35.73678605033814 H 0.0 **** 0.06
14738 H 43.68080620475479 73.54568569341299 35.0876738677905 H 0.0 **** 0.06
14739 H 43.74819925406517 73.81160846418257 36.84592870539143 H 0.0 **** 0.06
14740 H 45.16881032188152 74.17277596831335 35.837428837729306 H 0.0 **** 0.06
14741 C 110.99883232167758 113.76217332583269 59.84219685491797 C 0.0 **** -0.24
14742 H 111.95818394114448 114.18034500336557 60.14740809249906 H 0.0 **** 0.06
14743 H 110.39153381172451 113.5644908998838 60.72619132048874 H 0.0 **** 0.06
14744 H 111.16586744609688 112.83104970786248 59.29923909137801 H 0.0 **** 0.06
14745 H 110.48242087501703 114.47189686320381 59.19587365042446 H 0.0 **** 0.06
14746 C 65.07933593816273 37.71642936055949 63.4981152648611 C 0.0 **** -0.24
14747 H 65.82051251018035 38.22093673081284 64.11755011762176 H 0.0 **** 0.06
14748 H 64.10776417648981 37.75491133708414 63.99076566492124 H 0.0 **** 0.06
14749 H 65.37337181646981 36.677343925446905 63.353521815022475 H 0.0 **** 0.06
14750 H 65.01638433485039 38.213564914929094 62.529956537703356 H 0.0 **** 0.06
14751 C 76.6032073350321 62.181397933929134 111.53778034864371 C 0.0 **** -0.24
14752 H 75.99608502199237 62.30039306904837 112.4361392518615 H 0.0 **** 0.06
14753 H 77.04827704862535 61.18622060486638 111.53107045355466 H 0.0 **** 0.06
14754 H 77.39305712308243 62.93272462527642 111.5304661025782 H 0.0 **** 0.06
14755 H 75.97444936036553 62.304585869810694 110.6559549075829 H 0.0 **** 0.06
14756 C 39.720516625105475 24.545205228967546 34.91205924812465 C 0.0 **** -0.24
14757 H 39.179705405995094 24.428860147579428 33.9728936560916 H 0.0 **** 0.06
14758 H 39.02709802151537 24.431919280992872 35.74591831933108 H 0.0 **** 0.06
14759 H 40.17593019573931 25.534703840103475 34.949193209217526 H 0.0 **** 0.06
14760 H 40.49875222416151 23.784392673982694 34.97935432064469 H 0.0 **** 0.06
14761 C 3.4547440203049575 48.60895504864243 69.51530678487262 C 0.0 **** -0.24
14762 H 3.8685070482614208 48.78962986235439 70.5072421229275 H 0.0 **** 0.06
14763 H 2.80273484016368 49.43762608178014 69.23737267640584 H 0.0 **** 0.06
14764 H 2.8813360439592373 47.68198935445736 69.52407387450077 H 0.0 **** 0.06
14765 H 4.266398148835748 48.52657489597772 68.79253846565643 H 0.0 **** 0.06
14766 C 58.41823756242076 85.73341295981658 77.67224685964521 C 0.0 **** -0.24
14767 H 58.170786621625155 85.2532514858157 76.72637643480022 H 0.0 **** 0.06
14768 H 57.50475396966311 85.90906381129261 78.24081479476075 H 0.0 **** 0.06
14769 H 58.91555223769677 86.68319515046304 77.47884108268067 H 0.0 **** 0.06
14770 H 59.08301910844631 85.08590656080014 78.24458501434023 H 0.0 **** 0.06
14771 C 13.276122640683958 46.808638447857106 14.06396649358203 C 0.0 **** -0.24
14772 H 12.718192279678036 47.396150838348746 13.334908291773104 H 0.0 **** 0.06
14773 H 13.184089108334934 47.26917074288433 15.047785999511007 H 0.0 **** 0.06
14774 H 14.32671329027167 46.77454528741718 13.775685548568958 H 0.0 **** 0.06
14775 H 12.87564836967492 45.79641225915509 14.097497830327654 H 0.0 **** 0.06
14776 C 15.783067649440738 30.99733933870033 11.01151807060134 C 0.0 **** -0.24
14777 H 15.915295004245053 32.05978392273212 11.21691139686277 H 0.0 **** 0.06
14778 H 15.119158937778536 30.872456274885707 10.15603375439261 H 0.0 **** 0.06
14779 H 15.347914918188252 30.511044971668866 11.884087725704404 H 0.0 **** 0.06
14780 H 16.751623491789616 30.54848804190982 10.789486308870238 H 0.0 **** 0.06
14781 C 110.63986368551853 12.479581446126701 39.920594936241976 C 0.0 **** -0.24
14782 H 111.53677524626345 13.051025517389348 39.68181410406139 H 0.0 **** 0.06
14783 H 110.82653771993378 11.863505882826814 40.80080498628208 H 0.0 **** 0.06
14784 H 110.38242195588506 11.840195765718136 39.07642454452293 H 0.0 **** 0.06
14785 H 109.81602147324546 13.163199193420951 40.12259908897081 H 0.0 **** 0.06
14786 C 70.14411810460263 52.728865333209995 61.21460322273011 C 0.0 **** -0.24
14787 H 69.58254127707488 53.41831015127759 61.84412622549862 H 0.0 **** 0.06
14788 H 70.87289280180735 52.193071450758026 61.823296376881494 H 0.0 **** 0.06
14789 H 70.66303858895816 53.2891806988447 60.43556772623126 H 0.0 **** 0.06
14790 H 69.45890748368322 52.017012046057204 60.75457903381646 H 0.0 **** 0.06
14791 C 44.03047158567745 96.45664072842257 87.2875023544012 C 0.0 **** -0.24
14792 H 44.237623739502396 95.41882506336091 87.54806440471606 H 0.0 **** 0.06
14793 H 43.66422996663679 96.9853499175534 88.16750953262289 H 0.0 **** 0.06
14794 H 43.27593321764395 96.49022098885541 86.50148760100078 H 0.0 **** 0.06
14795 H 44.94603110170968 96.93108772417045 86.93262511525555 H 0.0 **** 0.06
14796 C 53.027306330120695 7.698846390438916 68.37861273963355 C 0.0 **** -0.24
14797 H 53.09928519813073 7.074704328251883 67.48793002901365 H 0.0 **** 0.06
14798 H 52.9895506091361 8.748408163442946 68.08476817549328 H 0.0 **** 0.06
14799 H 53.89787279100213 7.52912532263565 69.01235067754132 H 0.0 **** 0.06
14800 H 52.1217749200743 7.442670066982544 68.9289313228023 H 0.0 **** 0.06
14801 C 63.54265211024558 68.13237882324665 100.07117247293027 C 0.0 **** -0.24
14802 H 62.45929866009312 68.00799245387998 100.0783391225346 H 0.0 **** 0.06
14803 H 64.00239607116134 67.34586027271985 100.67048131316795 H 0.0 **** 0.06
14804 H 63.79931821428118 69.1053800757291 100.48938892982753 H 0.0 **** 0.06
14805 H 63.907664554103086 68.06917497144451 99.04626802449698 H 0.0 **** 0.06
14806 C 111.75800418869653 87.70091961372214 38.08756784124117 C 0.0 **** -0.24
14807 H 110.82716135904309 88.06007036903989 38.52659213712022 H 0.0 **** 0.06
14808 H 111.90479237819505 88.1704766038566 37.114603576831485 H 0.0 **** 0.06
14809 H 111.70876916076008 86.61913566418158 37.96571001186015 H 0.0 **** 0.06
14810 H 112.59058257707994 87.95542032989843 38.74404756337063 H 0.0 **** 0.06
14811 C 71.68540432101136 67.84269675115235 8.503198270904335 C 0.0 **** -0.24
14812 H 72.03815692421028 68.63791198055577 7.846901636958762 H 0.0 **** 0.06
14813 H 71.83723270087637 68.13577827077759 9.542325485375798 H 0.0 **** 0.06
14814 H 72.2441873643368 66.92938876600292 8.297438617132599 H 0.0 **** 0.06
14815 H 70.62457676854507 67.66759156335513 8.324881065726913 H 0.0 **** 0.06
14816 C 112.86287253628986 20.37782420618956 107.3512493548011 C 0.0 **** -0.24
14817 H 113.05000473648363 21.373065440986977 106.94861880163006 H 0.0 **** 0.06
14818 H 111.80395189016308 20.276266649990816 107.59122259869159 H 0.0 **** 0.06
14819 H 113.45617052561842 20.234090708682658 108.25459268764354 H 0.0 **** 0.06
14820 H 113.14096978551731 19.628860176497597 106.60962898147835 H 0.0 **** 0.06
14821 C 48.75101919062669 114.28103828344075 96.97642569120174 C 0.0 **** -0.24
14822 H 49.61525593017697 113.75838978231317 97.38613822164154 H 0.0 **** 0.06
14823 H 47.853024866100554 113.68770692015354 97.14896860702024 H 0.0 **** 0.06
14824 H 48.89021191897322 114.42773177607381 95.9051739045361 H 0.0 **** 0.06
14825 H 48.64713665391824 115.24998927995188 97.46611276319967 H 0.0 **** 0.06
14826 C 39.882107094031966 25.73733127206009 70.4914202799674 C 0.0 **** -0.24
14827 H 40.872033748429544 25.315826124375434 70.66418763205459 H 0.0 **** 0.06
14828 H 39.67482529897913 26.49901686568117 71.2437914267351 H 0.0 **** 0.06
14829 H 39.13409277513418 24.94700787534559 70.55894440200882 H 0.0 **** 0.06
14830 H 39.84603394761294 26.18711490444216 69.49964645176317 H 0.0 **** 0.06
14831 C 74.12789516267816 54.716554936140625 88.07474493628999 C 0.0 **** -0.24
14832 H 74.16107234685705 53.70838052965522 88.48688394633567 H 0.0 **** 0.06
14833 H 75.13614173153002 55.131437372523806 88.04729564827969 H 0.0 **** 0.06
14834 H 73.49344492315353 55.34376688837871 88.70226475169082 H 0.0 **** 0.06
14835 H 73.71988160245607 54.68372396047109 87.06513018019231 H 0.0 **** 0.06
14836 C 74.05511633787387 110.93557373169246 9.357139628496043 C 0.0 **** -0.24
14837 H 73.66155682651484 110.62507428516538 8.38936488327326 H 0.0 **** 0.06
14838 H 75.14456106457806 110.96643142358849 9.313184508055741 H 0.0 **** 0.06
14839 H 73.74232562232581 110.22482061621635 10.121910790113276 H 0.0 **** 0.06
14840 H 73.67374595084547 111.92627693721019 9.602385816049974 H 0.0 **** 0.06
14841 C 22.819328013027814 94.76714371042692 24.885127862268362 C 0.0 **** -0.24
14842 H 23.72789750169983 95.21250249125569 25.2913052221666 H 0.0 **** 0.06
14843 H 22.96716562825486 94.53926775265603 23.829834768641177 H 0.0 **** 0.06
14844 H 21.991752363172452 95.46823570000413 24.993744331440425 H 0.0 **** 0.06
14845 H 22.590777543832928 93.84981117801095 25.42746508156381 H 0.0 **** 0.06
14846 C 101.86124857996805 57.22885041454173 43.43319950087525 C 0.0 **** -0.24
14847 H 102.49550693966967 57.66911936329509 44.20186879622972 H 0.0 **** 0.06
14848 H 100.99837264047602 56.75432108317616 43.90151248062004 H 0.0 **** 0.06
14849 H 102.42906673913424 56.48344198752151 42.87662177539055 H 0.0 **** 0.06
14850 H 101.52195704399273 58.00864061188644 42.75180649287999 H 0.0 **** 0.06
14851 C 82.69041905466045 22.219177739993853 53.76338940866048 C 0.0 **** -0.24
14852 H 82.01709284111033 21.44656832899736 54.13376818366845 H 0.0 **** 0.06
14853 H 82.72255413891904 23.044298045652027 54.475512174392584 H 0.0 **** 0.06
14854 H 82.33082582084924 22.583586787829717 52.80041391884636 H 0.0 **** 0.06
14855 H 83.68995336640396 21.801681955148183 53.64353794524338 H 0.0 **** 0.06
14856 C 48.15605404376623 67.4210087483647 62.42159780752536 C 0.0 **** -0.24
14857 H 48.96531894126704 67.66416892552203 61.73278909538561 H 0.0 **** 0.06
14858 H 47.19945689102215 67.53720083531309 61.913366383383476 H 0.0 **** 0.06
14859 H 48.197086321574744 68.09220181976542 63.27919337206683 H 0.0 **** 0.06
14860 H 48.26605532429525 66.39068457285688 62.7615446305559 H 0.0 **** 0.06
14861 C 10.46872031505572 20.559813389915234 115.37899815185969 C 0.0 **** -0.24
14862 H 11.095831220757134 19.6775608120617 115.50985801728496 H 0.0 **** 0.06
14863 H 9.422497094649543 20.25704709115672 115.3262292137962 H 0.0 **** 0.06
14864 H 10.746507113977373 21.069565630854527 114.45654647157363 H 0.0 **** 0.06
14865 H 10.610332167051212 21.23412352682533 116.22330251559504 H 0.0 **** 0.06
14866 C 23.004949552832926 98.30699618721337 18.093233586997258 C 0.0 **** -0.24
14867 H 23.684519786776008 97.91336507599416 18.84940078852935 H 0.0 **** 0.06
14868 H 23.58261471342834 98.68634080465765 17.24913305686343 H 0.0 **** 0.06
14869 H 22.41379074098711 99.11584792746996 18.522121755125198 H 0.0 **** 0.06
14870 H 22.341529892416617 97.51324377675829 17.75280839453447 H 0.0 **** 0.06
14871 C 81.2732739805084 63.43587138187644 38.24223458565399 C 0.0 **** -0.24
14872 H 81.3499417292482 62.7454858908344 39.0826546810556 H 0.0 **** 0.06
14873 H 81.30016265299452 62.87450629426513 37.30780574635389 H 0.0 **** 0.06
14874 H 82.10840484714419 64.13645750109853 38.27019071539422 H 0.0 **** 0.06
14875 H 80.33513155651826 63.98606641244709 38.309615170141626 H 0.0 **** 0.06
14876 C 68.73965695732929 14.996411183252917 67.56961704483169 C 0.0 **** -0.24
14877 H 68.62059295590507 14.227524176329837 66.80650795957479 H 0.0 **** 0.06
14878 H 69.35291193905866 14.60901115935954 68.38378015350443 H 0.0 **** 0.06
14879 H 67.76016701279744 15.280128116104919 67.95533215849551 H 0.0 **** 0.06
14880 H 69.22452756989139 15.869882372163545 67.13278002544172 H 0.0 **** 0.06
14881 C 57.396401660019386 90.30692417353623 48.09352005947744 C 0.0 **** -0.24
14882 H 58.14187782637412 89.72789484575753 48.63761860507276 H 0.0 **** 0.06
14883 H 56.713766858336875 90.77691998930604 48.80209092797497 H 0.0 **** 0.06
14884 H 56.83605584093015 89.64616808553129 47.431710458406826 H 0.0 **** 0.06
14885 H 57.893906114436454 91.07671377355004 47.50266024645521 H 0.0 **** 0.06
14886 C 68.13434760516606 47.234939546881094 90.27441793686927 C 0.0 **** -0.24
14887 H 68.08169677438008 46.522273386603445 89.45139801311007 H 0.0 **** 0.06
14888 H 67.14841173333431 47.33984307988675 90.72709846922584 H 0.0 **** 0.06
14889 H 68.4666565518908 48.20201696473623 89.8970070237554 H 0.0 **** 0.06
14890 H 68.84130404341022 46.874034250598584 91.02226751895984 H 0.0 **** 0.06
14891 C 101.03409454305051 103.83475058650012 48.05622707975098 C 0.0 **** -0.24
14892 H 101.92311338495219 104.4415724902837 48.22891946220278 H 0.0 **** 0.06
14893 H 100.25395056924597 104.12623958810661 48.759134955824806 H 0.0 **** 0.06
14894 H 101.27868642841625 102.78247966676432 48.19893885017299 H 0.0 **** 0.06
14895 H 100.68118052121059 103.99048346164093 47.0366693611935 H 0.0 **** 0.06
14896 C 4.092454029909126 66.92634705209642 28.600628793776487 C 0.0 **** -0.24
14897 H 3.417088439816812 67.73876073175151 28.867485036436648 H 0.0 **** 0.06
14898 H 3.511270578295669 66.03640206275514 28.356475662817786 H 0.0 **** 0.06
14899 H 4.750807164739216 66.71109648872908 29.442072964214304 H 0.0 **** 0.06
14900 H 4.6901888030853645 67.21892248674922 27.737344527829563 H 0.0 **** 0.06
14901 C 28.70749055977518 107.98104924896751 16.052172703505136 C 0.0 **** -0.24
14902 H 29.419575467986988 107.2422245766416 15.683332354989176 H 0.0 **** 0.06
14903 H 27.69260529605515 107.64391128152977 15.842023135106501 H 0.0 **** 0.06
14904 H 28.884062326060814 108.93503865798846 15.556272984679168 H 0.0 **** 0.06
14905 H 28.83487216174524 108.1014468539592 17.12815241050336 H 0.0 **** 0.06
14906 C 76.87347510806441 38.01147576370121 24.395836891204 C 0.0 **** -0.24
14907 H 76.96013630811981 38.66097134493809 23.524286926449278 H 0.0 **** 0.06
14908 H 77.65241922910087 38.26541741758297 25.115101575334265 H 0.0 **** 0.06
14909 H 76.98757971752383 36.97269122942129 24.08693600014641 H 0.0 **** 0.06
14910 H 75.89462356611935 38.14946531659422 24.85551235288125 H 0.0 **** 0.06
14911 C 28.7744649137081 112.41724606144874 106.73010095289845 C 0.0 **** -0.24
14912 H 29.59355578680124 112.90167156211517 106.19843277659115 H 0.0 **** 0.06
14913 H 27.85309814556654 112.977457107753 106.56589400676458 H 0.0 **** 0.06
14914 H 28.999043853649873 112.39143352605217 107.79645642112362 H 0.0 **** 0.06
14915 H 28.65200250687142 111.39958560621098 106.35883266262238 H 0.0 **** 0.06
14916 C 81.63905355979949 113.6865367901404 75.441493509672 C 0.0 **** -0.24
14917 H 81.10605812405481 114.5346796454481 75.87295105550618 H 0.0 **** 0.06
14918 H 82.57276339355295 113.53209339224723 75.98195731887313 H 0.0 **** 0.06
14919 H 81.85459761434899 113.88949830112101 74.39238609804568 H 0.0 **** 0.06
14920 H 81.02090872576278 112.79178472510652 75.52035235835183 H 0.0 **** 0.06
14921 C 78.01414190393791 90.972308655951 105.09018984755124 C 0.0 **** -0.24
14922 H 78.43157327163607 91.62643553155576 104.32474615580867 H 0.0 **** 0.06
14923 H 78.76130360362316 90.23701851929576 105.38656915825948 H 0.0 **** 0.06
14924 H 77.13790549142612 90.46113970302844 104.69181439911625 H 0.0 **** 0.06
14925 H 77.72487903966032 91.56727864019618 105.95652447344054 H 0.0 **** 0.06
14926 C 105.02350790837085 63.03091483925087 56.846571638844324 C 0.0 **** -0.24
14927 H 105.88527926568077 62.60092327760549 56.33767846954973 H 0.0 **** 0.06
14928 H 104.37951143387914 62.230225953372724 57.21030755432341 H 0.0 **** 0.06
14929 H 104.46683976328882 63.65824684792804 56.15051554788417 H 0.0 **** 0.06
14930 H 105.36309218112524 63.635496959426774 57.68775946934352 H 0.0 **** 0.06
14931 C 42.19743855518925 51.917262813279265 68.13716085051578 C 0.0 **** -0.24
14932 H 41.67788718577579 52.72112864253981 68.6591140049685 H 0.0 **** 0.06
14933 H 43.14263440284226 51.70951319180165 68.63983364207283 H 0.0 **** 0.06
14934 H 42.39098166363456 52.218107492085835 67.10775399065702 H 0.0 **** 0.06
14935 H 41.577985349417915 51.020241823585266 68.14332955044955 H 0.0 **** 0.06
14936 C 94.01420546017619 66.39535742302044 115.82263777159358 C 0.0 **** -0.24
14937 H 94.18465904507826 67.442714450235 115.57467857545828 H 0.0 **** 0.06
14938 H 94.07882711239253 65.79215721677741 114.91677103270348 H 0.0 **** 0.06
14939 H 93.02260917370572 66.28384330688812 116.26385030914258 H 0.0 **** 0.06
14940 H 94.76759567051568 66.0626157175655 116.53568548054182 H 0.0 **** 0.06
14941 C 80.09262394700372 79.51638638335737 74.4775990745434 C 0.0 **** -0.24
14942 H 80.49765506858148 80.11787473766947 75.29189911941924 H 0.0 **** 0.06
14943 H 80.1617937768697 78.4602383671056 74.7370732277571 H 0.0 **** 0.06
14944 H 80.66176686707408 79.70576883063109 73.56778340165542 H 0.0 **** 0.06
14945 H 79.0479026076149 79.78328883895028 74.31484948378318 H 0.0 **** 0.06
14946 C 73.13811006841493 25.83427466364938 33.878184895350216 C 0.0 **** -0.24
14947 H 73.01502445910299 24.9114321055865 34.445845502360015 H 0.0 **** 0.06
14948 H 72.20229725875672 26.39432591227694 33.88772587234689 H 0.0 **** 0.06
14949 H 73.40749457239932 25.59389686233024 32.84939506988863 H 0.0 **** 0.06
14950 H 73.9267205766655 26.436096356789847 34.32916609793136 H 0.0 **** 0.06
14951 C 89.01466110429732 101.61911320026167 41.10010264928163 C 0.0 **** -0.24
14952 H 88.42488512122182 100.88970619657363 40.5450389861686 H 0.0 **** 0.06
14953 H 88.82645033394775 101.5014464220285 42.16737684762973 H 0.0 **** 0.06
14954 H 88.73401094920033 102.62562976309263 40.78959681477969 H 0.0 **** 0.06
14955 H 90.07393993303336 101.4592164902538 40.8972223623489 H 0.0 **** 0.06
14956 C 16.813328359555385 44.09451496184261 6.419882749040596 C 0.0 **** -0.24
14957 H 17.154947873148814 44.890530610926895 5.758184052729405 H 0.0 **** 0.06
14958 H 17.443074836713123 43.21425614353386 6.282788343130818 H 0.0 **** 0.06
14959 H 15.779861550968889 43.8434900874166 6.181396221149015 H 0.0 **** 0.06
14960 H 16.876868005160304 44.42909378498135 7.454621656385001 H 0.0 **** 0.06
14961 C 40.05317727382072 29.673781573564696 109.62556446014185 C 0.0 **** -0.24
14962 H 39.6803507904462 30.293858254145874 108.81098221933806 H 0.0 **** 0.06
14963 H 39.213446331548795 29.219073611871778 110.14999416144398 H 0.0 **** 0.06
14964 H 40.623963264661484 30.29168592995319 110.31969312299746 H 0.0 **** 0.06
14965 H 40.697437138466654 28.892183695851955 109.22163252390932 H 0.0 **** 0.06
14966 C 75.02197686446189 89.83191965406414 108.13917597479258 C 0.0 **** -0.24
14967 H 74.07288056365448 90.36145177106823 108.22087603738169 H 0.0 **** 0.06
14968 H 75.50914109568521 89.80623591239572 109.11420743876658 H 0.0 **** 0.06
14969 H 75.66435181629649 90.3462421463966 107.42450629573389 H 0.0 **** 0.06
14970 H 74.84048238174478 88.81369042140713 107.79617028085684 H 0.0 **** 0.06
14971 C 87.09961736503104 73.31380897465831 104.50325827753431 C 0.0 **** -0.24
14972 H 86.56469013536241 72.84135452947396 103.67950248139238 H 0.0 **** 0.06
14973 H 88.04298256674966 73.72093611410986 104.13889091595092 H 0.0 **** 0.06
14974 H 87.29766114181032 72.57482035381406 105.27929462617246 H 0.0 **** 0.06
14975 H 86.49128477096059 74.1197287343584 104.9152956952623 H 0.0 **** 0.06
14976 C 21.696410171259117 107.25075486116336 107.64355512296655 C 0.0 **** -0.24
14977 H 21.31678284604601 107.31370389692214 106.62355487785044 H 0.0 **** 0.06
14978 H 20.91582853485062 106.86338603017239 108.29859381070094 H 0.0 **** 0.06
14979 H 21.99515083804488 108.24343834714384 107.98172006692363 H 0.0 **** 0.06
14980 H 22.557922364851322 106.58348752191782 107.67042532057195 H 0.0 **** 0.06
14981 C 71.2136405964034 70.02837911751615 51.314576148769746 C 0.0 **** -0.24
14982 H 70.46190154568023 70.60577928417771 50.77558035506274 H 0.0 **** 0.06
14983 H 70.72070592222136 69.26777105527933 51.92107249679387 H 0.0 **** 0.06
14984 H 71.78832735451113 70.69204352041808 51.95965256463418 H 0.0 **** 0.06
14985 H 71.88210334077846 69.54651509998007 50.600696869363475 H 0.0 **** 0.06
14986 C 24.158937928917467 7.624523670486667 96.28179412135594 C 0.0 **** -0.24
14987 H 24.412153723989007 7.203157488604717 97.25532704039927 H 0.0 **** 0.06
14988 H 23.120134156958486 7.9527450167770155 96.28790685496239 H 0.0 **** 0.06
14989 H 24.295946885357907 6.865127543538335 95.51134289742913 H 0.0 **** 0.06
14990 H 24.808969238665966 8.475109217465302 96.07461656800498 H 0.0 **** 0.06
14991 C 62.01725346414438 22.98460623674373 31.547311548761 C 0.0 **** -0.24
14992 H 62.474997282591026 22.09825003143598 31.98666134567759 H 0.0 **** 0.06
14993 H 61.979737611160424 23.78045501801543 32.29123173874001 H 0.0 **** 0.06
14994 H 61.006042996259616 22.74581428844263 31.218570414377098 H 0.0 **** 0.06
14995 H 62.609796009681496 23.313215378684646 30.69248266020429 H 0.0 **** 0.06
14996 C 25.774603939003015 98.87889482537457 13.559734395035008 C 0.0 **** -0.24
14997 H 26.51266807642571 98.80756342963821 14.357859731368166 H 0.0 **** 0.06
14998 H 25.421916010885184 99.90805202119765 13.482134508444688 H 0.0 **** 0.06
14999 H 24.9334820702056 98.2220838132946 13.782270413037082 H 0.0 **** 0.06
15000 H 26.229668972267064 98.57791909516061 12.615941298643662 H 0.0 **** 0.06
15001 C 14.860304877877098 89.7944312277429 52.11390755696837 C 0.0 **** -0.24
15002 H 15.269389602980482 90.53731238052907 51.42819892918206 H 0.0 **** 0.06
15003 H 15.043239540190001 90.10917949032554 53.140982708012125 H 0.0 **** 0.06
15004 H 15.342919015931045 88.83270164059613 51.93613849894609 H 0.0 **** 0.06
15005 H 13.787710011003753 89.69824198527968 51.948128204254004 H 0.0 **** 0.06
15006 C 28.36568240956862 115.76244458410054 9.358026837678466 C 0.0 **** -0.24
15007 H 28.41905304311487 115.56453882357357 10.428387443539968 H 0.0 **** 0.06
15008 H 29.309006509883517 116.19488558380303 9.020842123588082 H 0.0 **** 0.06
15009 H 27.55413138842559 116.46235112285052 9.157942439258079 H 0.0 **** 0.06
15010 H 28.182134904560286 114.83015427413062 8.82402772602499 H 0.0 **** 0.06
15011 C 30.65353134498025 58.60795708971856 2.3304433160271003 C 0.0 **** -0.24
15012 H 30.443982348026722 58.1603736167766 1.3587884222725677 H 0.0 **** 0.06
15013 H 30.49202556312369 57.867186861163525 3.113283843039511 H 0.0 **** 0.06
15014 H 29.989016415958673 59.45633172014848 2.489802282767016 H 0.0 **** 0.06
15015 H 31.689165158742448 58.946906791240856 2.357914634624848 H 0.0 **** 0.06
15016 C 5.715796952779158 65.63775995526453 23.041968196206724 C 0.0 **** -0.24
15017 H 4.994949052206891 66.072397068031 23.733710046847165 H 0.0 **** 0.06
15018 H 5.54830944259092 66.04003584745331 22.04233222917823 H 0.0 **** 0.06
15019 H 5.594127259643301 64.55442981960528 23.02293383337954 H 0.0 **** 0.06
15020 H 6.726682631778857 65.88370715293573 23.367894744021086 H 0.0 **** 0.06
15021 C 34.13700933825186 26.690449837860598 81.88606528431802 C 0.0 **** -0.24
15022 H 33.97650411029339 26.189305545184965 80.93145675733979 H 0.0 **** 0.06
15023 H 34.40211490085849 25.952704735568858 82.64359560537548 H 0.0 **** 0.06
15024 H 33.223092716009695 27.204076836803665 82.18383979122632 H 0.0 **** 0.06
15025 H 34.94445537706904 27.4145300927743 81.78431776489168 H 0.0 **** 0.06
15026 C 99.06397281728272 84.04671386893509 70.87958018096552 C 0.0 **** -0.24
15027 H 98.53725295469195 83.94476553617028 71.82843828013227 H 0.0 **** 0.06
15028 H 99.08514622548364 85.09727186196409 70.5872436605467 H 0.0 **** 0.06
15029 H 98.54877499517468 83.46674157810693 70.11442773730153 H 0.0 **** 0.06
15030 H 100.08398058527408 83.67969638704557 70.98989445547448 H 0.0 **** 0.06
15031 C 49.86239266442442 68.74628243161615 27.34563898161599 C 0.0 **** -0.24
15032 H 49.81918398751884 69.0099925468316 28.401813153643047 H 0.0 **** 0.06
15033 H 48.89236060320539 68.93627417927914 26.88426385532773 H 0.0 **** 0.06
15034 H 50.112555352785904 67.690361106848 27.244694791377754 H 0.0 **** 0.06
15035 H 50.623853213409774 69.3500455091991 26.85181922704635 H 0.0 **** 0.06
15036 C 25.47275531299897 16.97424638500678 73.96412767634712 C 0.0 **** -0.24
15037 H 24.557861338814007 17.562781317630026 73.90689541463217 H 0.0 **** 0.06
15038 H 26.33260622917919 17.64394674782642 74.00720764706097 H 0.0 **** 0.06
15039 H 25.551756579305334 16.336911642849373 73.08360159954537 H 0.0 **** 0.06
15040 H 25.449379955973427 16.354511367029147 74.86088020907499 H 0.0 **** 0.06
15041 C 85.80306115602392 92.06171833723806 69.89922409376285 C 0.0 **** -0.24
15042 H 85.53523435153275 91.65979773154822 68.92198328179543 H 0.0 **** 0.06
15043 H 86.84898559572434 91.83896680833007 70.10874438312732 H 0.0 **** 0.06
15044 H 85.17372001211217 91.60539545877745 70.66404576398085 H 0.0 **** 0.06
15045 H 85.6524178780295 93.14169402722518 69.90148945843106 H 0.0 **** 0.06
15046 C 116.62454400009929 14.601327051781425 93.99866266846988 C 0.0 **** -0.24
15047 H 116.29611762558622 14.026341332819413 94.86461793244936 H 0.0 **** 0.06
15048 H 116.60802756855679 15.664399410119813 94.24145353673202 H 0.0 **** 0.06
15049 H 115.95560122716566 14.410501378419895 93.15988316447448 H 0.0 **** 0.06
15050 H 117.63825418296699 14.305663787707232 93.72934160885617 H 0.0 **** 0.06
15051 C 75.76673817053606 80.50485207534453 38.371486597531884 C 0.0 **** -0.24
15052 H 74.75908947804328 80.69620231752569 38.740936436610866 H 0.0 **** 0.06
15053 H 76.48824597267506 81.03546228567515 38.993313986226156 H 0.0 **** 0.06
15054 H 75.8486068721125 80.85446578714041 37.342053857573944 H 0.0 **** 0.06
15055 H 75.97057194918384 79.43460477599962 38.40985969194941 H 0.0 **** 0.06
15056 C 14.580809827519744 2.7820752087567087 106.64406496878368 C 0.0 **** -0.24
15057 H 13.821321142736718 2.6904443145849086 107.4211285035241 H 0.0 **** 0.06
15058 H 14.692373786247114 3.830805925397158 106.3670949628756 H 0.0 **** 0.06
15059 H 14.277715497616907 2.2045664572708574 105.77031873801982 H 0.0 **** 0.06
15060 H 15.531560665781214 2.4023001975514546 107.01909402145574 H 0.0 **** 0.06
15061 C 13.366821724379264 93.82682840047093 98.51690135199087 C 0.0 **** -0.24
15062 H 14.310068279137653 94.16503570165014 98.08832731571357 H 0.0 **** 0.06
15063 H 13.392794958665718 93.95442373176431 99.59928105012858 H 0.0 **** 0.06
15064 H 13.216129291969395 92.77424383427743 98.27821230992669 H 0.0 **** 0.06
15065 H 12.547543398088266 94.41417607999614 98.10144409410154 H 0.0 **** 0.06
15066 C 33.016665476916415 21.52410428857445 109.32879302435808 C 0.0 **** -0.24
15067 H 33.55759653821676 22.311661058223223 109.85374721829234 H 0.0 **** 0.06
15068 H 33.34967314211181 21.48512767230349 108.29192386711449 H 0.0 **** 0.06
15069 H 31.947440243576082 21.736225857519116 109.35930314663781 H 0.0 **** 0.06
15070 H 33.21151537026776 20.566196524226314 109.8111997086615 H 0.0 **** 0.06
15071 C 35.326335121381135 44.0004800829675 26.231527502351838 C 0.0 **** -0.24
15072 H 34.39871971878307 44.53995843475065 26.421186938824405 H 0.0 **** 0.06
15073 H 36.15396897188975 44.7080145563295 26.17689993846392 H 0.0 **** 0.06
15074 H 35.246416097004726 43.46107315037781 25.286735363930433 H 0.0 **** 0.06
15075 H 35.50618978207979 43.29080546304063 27.03997681162764 H 0.0 **** 0.06
15076 C 108.50997523864332 64.9039092037302 109.07986822464845 C 0.0 **** -0.24
15077 H 107.64867771951043 64.29226908716242 109.35036401908967 H 0.0 **** 0.06
15078 H 108.29482349247715 65.94991958297271 109.29637903643042 H 0.0 **** 0.06
15079 H 108.71755039878134 64.78755928822127 108.01620934648821 H 0.0 **** 0.06
15080 H 109.3780080663583 64.58300945819303 109.65647760454308 H 0.0 **** 0.06
15081 C 8.297669218294448 24.696480409106215 4.3486393748431595 C 0.0 **** -0.24
15082 H 7.8293199594417935 25.501359803559026 3.781438225665269 H 0.0 **** 0.06
15083 H 8.61521489820122 25.075214159500483 5.320205872489041 H 0.0 **** 0.06
15084 H 9.164145831214462 24.32382689809092 3.803027277018856 H 0.0 **** 0.06
15085 H 7.5814384588499255 23.887876232509427 4.489510475675189 H 0.0 **** 0.06
15086 C 24.531005959429223 48.786513949264446 46.410817074330126 C 0.0 **** -0.24
15087 H 23.68687663321279 49.287944981713906 45.937776330396744 H 0.0 **** 0.06
15088 H 25.265395168653043 49.52948272554386 46.72500167725139 H 0.0 **** 0.06
15089 H 24.98944319695545 48.09868503869973 45.700689886795566 H 0.0 **** 0.06
15090 H 24.18196140075267 48.23073734660349 47.280917764720776 H 0.0 **** 0.06
15091 C 28.739366857304077 28.19248268828474 98.95063118654778 C 0.0 **** -0.24
15092 H 27.947572296703925 27.651903571512747 98.43098359328616 H 0.0 **** 0.06
15093 H 28.963058039032674 29.113572614292195 98.41281193718407 H 0.0 **** 0.06
15094 H 29.63389413654594 27.57015884288697 98.99494845719866 H 0.0 **** 0.06
15095 H 28.412912585026127 28.431791473835744 99.96212899314207 H 0.0 **** 0.06
15096 C 109.03034719211973 8.425843178846037 113.004501333322 C 0.0 **** -0.24
15097 H 108.02362749686284 8.613135313114185 112.63162327311251 H 0.0 **** 0.06
15098 H 109.62479345515396 9.33550988264767 112.91664849480011 H 0.0 **** 0.06
15099 H 109.49306218608467 7.6314436036491315 112.41906038515286 H 0.0 **** 0.06
15100 H 108.98004837182339 8.124273217478162 114.0507042521061 H 0.0 **** 0.06
15101 C 106.68124835229466 46.25806000036685 19.622136478011868 C 0.0 **** -0.24
15102 H 105.92344049618842 46.949476796013215 19.989942139557257 H 0.0 **** 0.06
15103 H 107.49864775451351 46.19917110712536 20.341123478501487 H 0.0 **** 0.06
15104 H 107.06309004107987 46.61139220069366 18.664526839025484 H 0.0 **** 0.06
15105 H 106.23887216530653 45.269704397465944 19.49432598646021 H 0.0 **** 0.06
15106 C 73.65957850314945 75.67859560058963 93.29075049367461 C 0.0 **** -0.24
15107 H 74.36339854091557 75.22431596823873 93.98756918467095 H 0.0 **** 0.06
15108 H 72.64951665486095 75.60612838494586 93.69685105213944 H 0.0 **** 0.06
15109 H 73.70623320178183 75.1563722051124 92.33532702324518 H 0.0 **** 0.06
15110 H 73.91809639863254 76.72720671971786 93.14518554250427 H 0.0 **** 0.06
15111 C 113.70643638282735 27.630236557096396 57.238170563279255 C 0.0 **** -0.24
15112 H 112.75225710098908 28.008689106346992 56.87091920821979 H 0.0 **** 0.06
15113 H 113.75265444635704 27.75093058994861 58.31999806590932 H 0.0 **** 0.06
15114 H 114.52085693503784 28.187129814856945 56.774568317228386 H 0.0 **** 0.06
15115 H 113.79898418858778 26.57333267863396 56.98513074454206 H 0.0 **** 0.06
15116 C 85.26398611080705 38.61142214492292 12.04381705766076 C 0.0 **** -0.24
15117 H 84.42657477705868 38.006748089440165 11.69583788761588 H 0.0 **** 0.06
15118 H 84.91821228422461 39.62248686666114 12.25709506388921 H 0.0 **** 0.06
15119 H 86.03291705471685 38.64511991935492 11.271334897491045 H 0.0 **** 0.06
15120 H 85.67945515384429 38.16973081326466 12.950023024457323 H 0.0 **** 0.06
15121 C 81.67377009044876 3.041430024572165 81.76831011474238 C 0.0 **** -0.24
15122 H 82.75706024373008 3.0472213512575053 81.88667327700148 H 0.0 **** 0.06
15123 H 81.37347288570669 2.1548868829047763 81.20942208057991 H 0.0 **** 0.06
15124 H 81.36309785659259 3.9351159105204516 81.22609398737993 H 0.0 **** 0.06
15125 H 81.20110811393897 3.0306371382771147 82.75050415987897 H 0.0 **** 0.06
15126 C 59.20146756950783 30.403442667989395 13.00584420114589 C 0.0 **** -0.24
15127 H 58.80921949257933 31.042497948033827 12.215323039778994 H 0.0 **** 0.06
15128 H 58.375265455121024 30.02614283318735 13.610549925502454 H 0.0 **** 0.06
15129 H 59.87888433574426 30.97915175299545 13.635793790767906 H 0.0 **** 0.06
15130 H 59.73952574273724 29.56545324422467 12.562644363111133 H 0.0 **** 0.06
15131 C 11.026212007802314 27.094651436788183 39.59209818126661 C 0.0 **** -0.24
15132 H 11.26969113982318 28.149563105243658 39.72018906307473 H 0.0 **** 0.06
15133 H 9.989330470549703 26.999251349941858 39.26741286291721 H 0.0 **** 0.06
15134 H 11.159023872822331 26.57331396857927 40.540433173151285 H 0.0 **** 0.06
15135 H 11.684417866094122 26.65849335220554 38.84085712612102 H 0.0 **** 0.06
15136 C 78.27013310506399 3.5657409709420413 19.428431545029788 C 0.0 **** -0.24
15137 H 77.28179336455855 3.1496537681965755 19.624551355348736 H 0.0 **** 0.06
15138 H 78.90656882519215 3.4158657067957137 20.30131929417411 H 0.0 **** 0.06
15139 H 78.18048326619177 4.632847107558504 19.222571338665247 H 0.0 **** 0.06
15140 H 78.71089075470448 3.0647212338175525 18.56681744504718 H 0.0 **** 0.06
15141 C 74.12270418297629 46.97884339378754 0.3670101118511866 C 0.0 **** -0.24
15142 H 74.89930689858204 46.39908633799706 -0.13231940881480853 H 0.0 **** 0.06
15143 H 74.33410419336451 47.02302817194493 1.4359141158929987 H 0.0 **** 0.06
15144 H 73.1551297471882 46.503419528017844 0.20715453410419116 H 0.0 **** 0.06
15145 H 74.10358716139945 47.9885189574959 -0.04197607551471094 H 0.0 **** 0.06
15146 C 86.77658623736758 63.456782076911004 94.82863311364181 C 0.0 **** -0.24
15147 H 86.83093914163351 62.39093358574308 95.05325679619526 H 0.0 **** 0.06
15148 H 87.44165212154772 64.00272562021175 95.4985219413235 H 0.0 **** 0.06
15149 H 85.75346010737056 63.80524819647392 94.96789266362615 H 0.0 **** 0.06
15150 H 87.08038091869633 63.62536151478877 93.79620895499528 H 0.0 **** 0.06
15151 C 63.52889836423503 60.25939100054209 83.59312298087318 C 0.0 **** -0.24
15152 H 63.706390365936585 59.22932289822784 83.28639969627136 H 0.0 **** 0.06
15153 H 63.55091389861198 60.90769302175985 82.71645095423253 H 0.0 **** 0.06
15154 H 64.30460053616102 60.56840764400298 84.29424911739329 H 0.0 **** 0.06
15155 H 62.55368865623055 60.33214043817738 84.07539215559606 H 0.0 **** 0.06
15156 C 13.215111528731654 47.71210597607923 10.002868400052257 C 0.0 **** -0.24
15157 H 13.680571787544068 47.423687050609814 9.060879449619044 H 0.0 **** 0.06
15158 H 12.130548377825193 47.643888515050605 9.90895242336192 H 0.0 **** 0.06
15159 H 13.494961053651622 48.736139431706675 10.248008420383993 H 0.0 **** 0.06
15160 H 13.553961965938129 47.043033110317225 10.794647991665592 H 0.0 **** 0.06
15161 C 71.13102508071162 112.49765013928481 65.7640123242189 C 0.0 **** -0.24
15162 H 70.9945571817486 113.19837348585608 66.58705133127705 H 0.0 **** 0.06
15163 H 71.32683171446027 111.50233252422683 66.1637317402263 H 0.0 **** 0.06
15164 H 71.9746373137474 112.81614102331233 65.15116164317456 H 0.0 **** 0.06
15165 H 70.22736962395504 112.47335812568753 65.15351516403777 H 0.0 **** 0.06
15166 C 24.533917109435748 44.266213910502586 40.52437183254074 C 0.0 **** -0.24
15167 H 25.255589974589526 44.56890209306022 41.282690412638544 H 0.0 **** 0.06
15168 H 23.646616236271313 44.894801696901084 40.59608298592403 H 0.0 **** 0.06
15169 H 24.255438377092815 43.22490361444915 40.68309917240404 H 0.0 **** 0.06
15170 H 24.979405261327315 44.376451514760845 39.535390044580424 H 0.0 **** 0.06
15171 C 56.22706803802301 16.622979654931044 72.81207842121242 C 0.0 **** -0.24
15172 H 56.42090539770343 15.779336211574872 73.4751363622099 H 0.0 **** 0.06
15173 H 55.28589476512532 17.096268726095815 73.09361766744482 H 0.0 **** 0.06
15174 H 56.1639132985573 16.269212950248402 71.78313938101235 H 0.0 **** 0.06
15175 H 57.03793498280812 17.34611435962401 72.89839150842124 H 0.0 **** 0.06
15176 C 70.19182098417195 111.43570674804432 87.42648503365479 C 0.0 **** -0.24
15177 H 71.23123095261712 111.74170112386558 87.54661972562053 H 0.0 **** 0.06
15178 H 69.87417375322974 110.8777241029314 88.30744052783996 H 0.0 **** 0.06
15179 H 70.09926819628453 110.80403496465752 86.54347899926654 H 0.0 **** 0.06
15180 H 69.56484659786054 112.31936169152513 87.30845109006128 H 0.0 **** 0.06
15181 C 5.484363697810892 48.62808436404817 64.42993000962775 C 0.0 **** -0.24
15182 H 5.458617404097367 49.00884547402637 63.40855930632023 H 0.0 **** 0.06
15183 H 6.511479760712064 48.38595608199542 64.70057069457263 H 0.0 **** 0.06
15184 H 4.8687857631785505 47.73186335038882 64.49808124092749 H 0.0 **** 0.06
15185 H 5.097418463968154 49.38691249872527 65.11003236394353 H 0.0 **** 0.06
15186 C 37.183744563333875 12.561260145578672 14.110645212747414 C 0.0 **** -0.24
15187 H 36.84254810413333 11.958336679493442 14.952098258464844 H 0.0 **** 0.06
15188 H 37.24095891752788 13.606864213218273 14.412066142402551 H 0.0 **** 0.06
15189 H 36.48231575407459 12.459152247890131 13.282730631037566 H 0.0 **** 0.06
15190 H 38.169733449520265 12.219496895249904 13.795187157197205 H 0.0 **** 0.06
15191 C 8.369289959588684 100.20993837261523 44.73082743058504 C 0.0 **** -0.24
15192 H 9.166803365492854 100.63875174536307 44.12431741061556 H 0.0 **** 0.06
15193 H 8.777633817128049 99.42097532890699 45.36307550203753 H 0.0 **** 0.06
15194 H 7.601089860906114 99.79292938433628 44.07875753985314 H 0.0 **** 0.06
15195 H 7.930696885644352 100.9870594804845 45.356808952913326 H 0.0 **** 0.06
15196 C 98.42173492198538 20.34023085183145 104.92215114371314 C 0.0 **** -0.24
15197 H 99.2657726001438 20.97044481726209 104.6415005881494 H 0.0 **** 0.06
15198 H 98.34810972355109 20.29368052892427 106.00892223054416 H 0.0 **** 0.06
15199 H 98.5723536091931 19.335687196751024 104.52427661925248 H 0.0 **** 0.06
15200 H 97.50272874431326 20.758792453177577 104.5123160854422 H 0.0 **** 0.06
15201 C 72.8118829669549 61.99758351909097 85.75293928733817 C 0.0 **** -0.24
15202 H 73.638024223522 61.626000401911334 85.14616534709995 H 0.0 **** 0.06
15203 H 71.88708986194476 61.94147312905867 85.17938609984697 H 0.0 **** 0.06
15204 H 73.00485418403201 63.033212604507064 86.03195441917944 H 0.0 **** 0.06
15205 H 72.71998591047176 61.38964025871217 86.65279086916587 H 0.0 **** 0.06
15206 C 58.302157746424086 113.44505259284182 43.711925023930334 C 0.0 **** -0.24
15207 H 58.32211147254486 112.36079364155317 43.592906280462195 H 0.0 **** 0.06
15208 H 58.057350546138224 113.6911268649428 44.745828273832174 H 0.0 **** 0.06
15209 H 57.54831882715618 113.86874024571664 43.04804578332266 H 0.0 **** 0.06
15210 H 59.280094251648165 113.85550446600477 43.46117735441409 H 0.0 **** 0.06
15211 C 16.135551659443287 17.112544840451903 44.8469311767569 C 0.0 **** -0.24
15212 H 16.133897186863283 16.023703400186747 44.902108854949134 H 0.0 **** 0.06
15213 H 15.107902440173685 17.47712989186735 44.83002391427232 H 0.0 **** 0.06
15214 H 16.64845146973324 17.429193807583175 43.939356320921576 H 0.0 **** 0.06
15215 H 16.650712345542505 17.519100258790303 45.71682547117612 H 0.0 **** 0.06
15216 C 27.98090801399846 94.48310803378214 8.562577822900533 C 0.0 **** -0.24
15217 H 26.898042608990863 94.49357228297555 8.439208583567613 H 0.0 **** 0.06
15218 H 28.250171747182605 95.05365883345488 9.452920984542391 H 0.0 **** 0.06
15219 H 28.450716089047575 94.93351467087888 7.687758844426114 H 0.0 **** 0.06
15220 H 28.324540848068864 93.45516623137195 8.6717886676701 H 0.0 **** 0.06
15221 C 58.482552038075816 98.99744138723082 109.33994275020954 C 0.0 **** -0.24
15222 H 58.99708544349833 99.2616768512768 110.26383936903486 H 0.0 **** 0.06
15223 H 58.526822043563705 99.83660763186126 108.64611848297382 H 0.0 **** 0.06
15224 H 57.4418043857328 98.7598177026893 109.5587811372112 H 0.0 **** 0.06
15225 H 58.96666139868582 98.12917488750304 108.89137897951288 H 0.0 **** 0.06
15226 C 106.91022042562653 102.34976070296005 54.78658631145487 C 0.0 **** -0.24
15227 H 106.32501076054575 102.35144855143932 55.70666773055502 H 0.0 **** 0.06
15228 H 107.19109106966206 103.37174536751513 54.532204729931394 H 0.0 **** 0.06
15229 H 106.31419091860559 101.92386730233977 53.97842376608717 H 0.0 **** 0.06
15230 H 107.80846635325537 101.74946055181726 54.93011655271755 H 0.0 **** 0.06
15231 C 64.13130877423859 64.3957230459724 37.92760980511508 C 0.0 **** -0.24
15232 H 64.94186052190716 65.00446308432831 37.52578839138505 H 0.0 **** 0.06
15233 H 64.31254533236867 64.203980810384 38.986100854384915 H 0.0 **** 0.06
15234 H 64.08619248811598 63.4496014856526 37.389118928647065 H 0.0 **** 0.06
15235 H 63.18667818714071 64.92696786539551 37.81125706525688 H 0.0 **** 0.06
15236 C 87.54604033103647 17.211752456559736 26.462196039654543 C 0.0 **** -0.24
15237 H 88.61369923642778 16.996024691354023 26.425782601862153 H 0.0 **** 0.06
15238 H 87.07758987975544 16.887761425418347 25.532774735997194 H 0.0 **** 0.06
15239 H 87.39695201361337 18.284018997772137 26.591703341988406 H 0.0 **** 0.06
15240 H 87.09748740109629 16.67929498052628 27.30192002514167 H 0.0 **** 0.06
15241 C 75.5691848220319 46.487510192524994 66.57284177982268 C 0.0 **** -0.24
15242 H 75.68223942224455 47.391122534718676 67.17206992774848 H 0.0 **** 0.06
15243 H 74.96762076305941 45.76216501597918 67.11939730609532 H 0.0 **** 0.06
15244 H 76.55172445288167 46.063141414228 66.36724275677068 H 0.0 **** 0.06
15245 H 75.07626074267264 46.73525275544668 65.6323671747613 H 0.0 **** 0.06
15246 C 54.95288802840531 60.56510323485872 9.10632231113226 C 0.0 **** -0.24
15247 H 54.59393987635494 61.042972839428096 10.018025578682085 H 0.0 **** 0.06
15248 H 54.11789893502157 60.085696418978294 8.594450902383386 H 0.0 **** 0.06
15249 H 55.702278717935116 59.814880385464626 9.359711865800051 H 0.0 **** 0.06
15250 H 55.39660737752186 61.31645460622082 8.45271520348193 H 0.0 **** 0.06
15251 C 32.25785526347871 47.68382562546165 101.32262065695335 C 0.0 **** -0.24
15252 H 32.16838756491173 47.78485261251495 102.40443213254258 H 0.0 **** 0.06
15253 H 33.233743294388155 48.04969637869698 101.00373024136428 H 0.0 **** 0.06
15254 H 31.47471868824109 48.266518092132856 100.83795114282572 H 0.0 **** 0.06
15255 H 32.15408731392391 46.63420013719056 101.04677008196765 H 0.0 **** 0.06
15256 C 70.00886213657384 33.14312977490502 59.82448650878257 C 0.0 **** -0.24
15257 H 70.320253016469 32.95563822843545 58.79694741143658 H 0.0 **** 0.06
15258 H 70.56546057256486 33.99203274828096 60.22350151853885 H 0.0 **** 0.06
15259 H 70.20823451578678 32.259623755910354 60.4312844646513 H 0.0 **** 0.06
15260 H 68.94240991726849 33.36563967546388 59.84623339393221 H 0.0 **** 0.06
15261 C 0.28652578637191617 115.62481275814704 16.68795360379599 C 0.0 **** -0.24
15262 H -0.3028177061436743 114.75435229472197 16.399005825056847 H 0.0 **** 0.06
15263 H -0.2110639603177411 116.14342084603095 17.50838346098574 H 0.0 **** 0.06
15264 H 0.380943300681162 116.29830544920142 15.835338818498371 H 0.0 **** 0.06
15265 H 1.2770593700544133 115.30266562405814 17.008183791174446 H 0.0 **** 0.06
15266 C 98.23128775476411 105.33834853927814 96.9779209323381 C 0.0 **** -0.24
15267 H 99.04207864127719 104.6334596302029 97.15837495608824 H 0.0 **** 0.06
15268 H 97.78584492373994 105.13671175513511 96.00299409334224 H 0.0 **** 0.06
15269 H 98.62305500421357 106.35507133253199 96.99567242562634 H 0.0 **** 0.06
15270 H 97.4737835039835 105.2267915683151 97.75322814525043 H 0.0 **** 0.06
15271 C 52.92030080658864 64.78858303470935 21.344193502942417 C 0.0 **** -0.24
15272 H 52.26213609003695 63.928508408473675 21.21782953091298 H 0.0 **** 0.06
15273 H 53.15611668740989 64.91248304437497 22.401915923105364 H 0.0 **** 0.06
15274 H 52.42110667891148 65.68494016973665 20.975836219419577 H 0.0 **** 0.06
15275 H 53.84073447513107 64.62726382500884 20.783057209967737 H 0.0 **** 0.06
15276 C 21.852174856123327 30.371244256169348 48.652936288142826 C 0.0 **** -0.24
15277 H 21.805844968279473 31.41777607445499 48.95471050812989 H 0.0 **** 0.06
15278 H 22.81931898435954 29.95420569520968 48.9384274358282 H 0.0 **** 0.06
15279 H 21.72920652032019 30.298586617123988 47.57288186711003 H 0.0 **** 0.06
15280 H 21.056350001556552 29.81482248404916 49.14704611266501 H 0.0 **** 0.06
15281 C 44.84551259983937 39.76071971868777 107.73405465250218 C 0.0 **** -0.24
15282 H 45.485068557857744 40.52689084926354 108.17098814200273 H 0.0 **** 0.06
15283 H 44.83613813603705 39.86955366830901 106.64916880459504 H 0.0 **** 0.06
15284 H 43.83190565005165 39.87019923716605 108.11982810630593 H 0.0 **** 0.06
15285 H 45.229898138010654 38.77483905080561 107.99769284543174 H 0.0 **** 0.06
15286 C 20.492074320760175 50.07702898881797 78.11388493455681 C 0.0 **** -0.24
15287 H 21.2455549887127 50.07474273150871 78.9018022191863 H 0.0 **** 0.06
15288 H 19.589306758414704 49.583270507324244 78.4727779909293 H 0.0 **** 0.06
15289 H 20.876218302890198 49.54590413429639 77.24217750756301 H 0.0 **** 0.06
15290 H 20.258636628317287 51.10643348433922 77.83778653394876 H 0.0 **** 0.06
15291 C 53.119422911226394 15.971278369246647 48.358876769756876 C 0.0 **** -0.24
15292 H 54.02942834022315 15.765100521570218 48.92166601625513 H 0.0 **** 0.06
15293 H 53.26310549900407 15.683415517397862 47.3171477776591 H 0.0 **** 0.06
15294 H 52.89143512558658 17.035872267267337 48.414423019260255 H 0.0 **** 0.06
15295 H 52.29274209045849 15.400338188531634 48.78396994845042 H 0.0 **** 0.06
15296 C 53.77226892091636 69.66714536500163 99.93867936012597 C 0.0 **** -0.24
15297 H 53.77945696168808 68.63586831625346 99.58517409559983 H 0.0 **** 0.06
15298 H 52.98429249079663 69.79012868902834 100.6817716959545 H 0.0 **** 0.06
15299 H 53.588855963211756 70.33709442261335 99.09876394628199 H 0.0 **** 0.06
15300 H 54.736623617346766 69.90284500632288 100.38728117347671 H 0.0 **** 0.06
15301 C 25.2631924555742 101.78289303312567 89.2161473679686 C 0.0 **** -0.24
15302 H 26.132684799424055 102.36594491795631 89.51910860065425 H 0.0 **** 0.06
15303 H 24.396577949063385 102.09437404343612 89.80120631559052 H 0.0 **** 0.06
15304 H 25.45738908195898 100.72492145459694 89.38817552834263 H 0.0 **** 0.06
15305 H 25.06487735450463 101.94913795834202 88.15735857654118 H 0.0 **** 0.06
15306 C 46.6520715303123 114.46027026706919 5.205041531240111 C 0.0 **** -0.24
15307 H 45.826869981706665 114.86205501027666 5.793178760716669 H 0.0 **** 0.06
15308 H 47.49859054879906 114.25457253600896 5.860203314621089 H 0.0 **** 0.06
15309 H 46.94578478804752 115.18611665100492 4.4475493230303496 H 0.0 **** 0.06
15310 H 46.3356604607641 113.53666215050642 4.719773482303889 H 0.0 **** 0.06
15311 C 102.0258570017053 64.59671471229893 21.393016577497576 C 0.0 **** -0.24
15312 H 101.87184935051877 65.46085964237699 20.746665159023394 H 0.0 **** 0.06
15313 H 102.71210269623836 63.90005099464047 20.910587795969178 H 0.0 **** 0.06
15314 H 101.07164998519013 64.10199686855603 21.572441080043433 H 0.0 **** 0.06
15315 H 102.44861462491127 64.92451251308853 22.34262362729379 H 0.0 **** 0.06
15316 C 14.082654975775881 28.06049036517858 43.35411013924414 C 0.0 **** -0.24
15317 H 15.080904453005047 27.649165995051277 43.20235624369775 H 0.0 **** 0.06
15318 H 13.945227523255767 28.92832630128953 42.708380706588144 H 0.0 **** 0.06
15319 H 13.968698373431295 28.360195970015667 44.396261977605604 H 0.0 **** 0.06
15320 H 13.336505834652144 27.304369269080212 43.1106572881375 H 0.0 **** 0.06
15321 C 81.06541484331058 70.77763248271799 91.20305611702429 C 0.0 **** -0.24
15322 H 81.96092504530338 71.37235065762098 91.0208068952727 H 0.0 **** 0.06
15323 H 80.55531510745334 71.15227808281622 92.09046182809101 H 0.0 **** 0.06
15324 H 81.34746963146785 69.73637568631739 91.35843415505565 H 0.0 **** 0.06
15325 H 80.40016939865819 70.84948664164165 90.34278847002156 H 0.0 **** 0.06
15326 C 89.89239266620447 43.183658602323064 54.453607989117316 C 0.0 **** -0.24
15327 H 89.31719837445112 42.81798500246455 55.30401453325938 H 0.0 **** 0.06
15328 H 90.4996520719358 42.37288643253598 54.05018821732691 H 0.0 **** 0.06
15329 H 90.5416382890177 43.997542148221555 54.77826585741371 H 0.0 **** 0.06
15330 H 89.21169557162094 43.54717541457839 53.684134189854966 H 0.0 **** 0.06
15331 C 37.70812248424748 24.59444047657079 100.71299766142042 C 0.0 **** -0.24
15332 H 38.12323353328332 23.762138251895976 100.14457106811494 H 0.0 **** 0.06
15333 H 37.891663516146195 25.526706260123277 100.17921199065816 H 0.0 **** 0.06
15334 H 38.18318447872813 24.636338140392205 101.69307298798347 H 0.0 **** 0.06
15335 H 36.63417958751395 24.451257636609427 100.83623056551502 H 0.0 **** 0.06
15336 C 115.22754084262955 74.94976456647845 78.58312418356013 C 0.0 **** -0.24
15337 H 114.60548119859072 75.6329840115842 78.00510520473796 H 0.0 **** 0.06
15338 H 116.23323112634755 75.36171113664312 78.6723211450788 H 0.0 **** 0.06
15339 H 115.2728729840858 73.98493490334266 78.077873067025 H 0.0 **** 0.06
15340 H 114.79857806149388 74.8194282143437 79.57719731739888 H 0.0 **** 0.06
15341 C 103.57117206399593 8.869865023723136 90.50173498031623 C 0.0 **** -0.24
15342 H 104.44730867212257 8.70658922658582 89.87347653480396 H 0.0 **** 0.06
15343 H 103.27132504318612 7.927071628496748 90.95957268036616 H 0.0 **** 0.06
15344 H 102.75332025568582 9.254133919383236 89.89210574385973 H 0.0 **** 0.06
15345 H 103.81343360500597 9.591289518380648 91.28239305958454 H 0.0 **** 0.06
15346 C 104.56067371699723 9.673353290536895 109.0062003904149 C 0.0 **** -0.24
15347 H 105.21858770864455 10.245583355598257 108.35222417481364 H 0.0 **** 0.06
15348 H 104.31727034981418 10.267664591664015 109.88689037068738 H 0.0 **** 0.06
15349 H 105.06308959538435 8.755975072300657 109.31370239333295 H 0.0 **** 0.06
15350 H 103.6445318234062 9.42251688446865 108.47072570033617 H 0.0 **** 0.06
15351 C 54.66577714911989 54.68742559911979 78.99638436456053 C 0.0 **** -0.24
15352 H 55.24390696405828 54.13170918876102 79.73464932572767 H 0.0 **** 0.06
15353 H 54.45555829380044 54.044476397724935 78.14093863528183 H 0.0 **** 0.06
15354 H 55.23560103746467 55.55591372640964 78.66768387600825 H 0.0 **** 0.06
15355 H 53.727361179832165 55.015865321282035 79.44349710251731 H 0.0 **** 0.06
15356 C 77.28827676780452 4.608271138598127 73.68247280197917 C 0.0 **** -0.24
15357 H 78.24672975101547 4.209171404153608 73.3487943443892 H 0.0 **** 0.06
15358 H 76.48187075807499 3.9866278995300775 73.29310792217848 H 0.0 **** 0.06
15359 H 77.17182345456217 5.627880893323294 73.31490029322433 H 0.0 **** 0.06
15360 H 77.25468687538068 4.607513871862125 74.77153572844574 H 0.0 **** 0.06
15361 C 36.22287805835462 68.66882821906034 14.87418866258513 C 0.0 **** -0.24
15362 H 36.21735399379055 67.76323659170151 14.266863128081638 H 0.0 **** 0.06
15363 H 36.01726325643476 69.53185553706987 14.239666432629761 H 0.0 **** 0.06
15364 H 37.20066343335545 68.78599695064867 15.34185974106353 H 0.0 **** 0.06
15365 H 35.45742122665479 68.5930360519472 15.645880503774539 H 0.0 **** 0.06
15366 C 10.135912996046816 87.45331803397693 59.260394728477316 C 0.0 **** -0.24
15367 H 11.036423374968788 88.06711212440331 59.259048685674976 H 0.0 **** 0.06
15368 H 10.098321289282215 86.86558581276785 60.1784120223358 H 0.0 **** 0.06
15369 H 10.151018967157206 86.78454241504659 58.39974732548938 H 0.0 **** 0.06
15370 H 9.257893000508716 88.09743225294727 59.20417395311811 H 0.0 **** 0.06
15371 C 43.13985743222028 62.50696248677625 7.537895177234844 C 0.0 **** -0.24
15372 H 42.12148020854648 62.1405356686521 7.66372891617749 H 0.0 **** 0.06
15373 H 43.204156364549554 63.533240060361244 7.898547248703977 H 0.0 **** 0.06
15374 H 43.409446207100196 62.47459374693313 6.481638959308313 H 0.0 **** 0.06
15375 H 43.82472108364201 61.87775417826712 8.106294371368747 H 0.0 **** 0.06
15376 C 24.842644710441988 3.3252301597847236 36.14558782024994 C 0.0 **** -0.24
15377 H 25.524645453090102 2.8641799162336525 36.86070227404437 H 0.0 **** 0.06
15378 H 24.695576570032244 2.653956082101047 35.298621984886736 H 0.0 **** 0.06
15379 H 25.26675278287712 4.265498883514695 35.794981252392674 H 0.0 **** 0.06
15380 H 23.8839536509824 3.515128281751288 36.62915185140993 H 0.0 **** 0.06
15381 C 90.40420084702401 51.45248005825523 85.40970229034761 C 0.0 **** -0.24
15382 H 91.48756218787088 51.468342766670986 85.52288561718282 H 0.0 **** 0.06
15383 H 90.11117250081898 52.1394115872817 84.61520340531087 H 0.0 **** 0.06
15384 H 89.93603981534864 51.759282484320465 86.34571327397879 H 0.0 **** 0.06
15385 H 90.07984067672558 50.443335833763115 85.1549212036135 H 0.0 **** 0.06
15386 C 71.62872158470441 95.45431154453226 84.50443302329992 C 0.0 **** -0.24
15387 H 72.5402822175381 95.17607813491367 83.97500183822567 H 0.0 **** 0.06
15388 H 71.86650098509486 95.6737949623419 85.54603901476395 H 0.0 **** 0.06
15389 H 70.9168215936831 94.6298881701515 84.4604388675337 H 0.0 **** 0.06
15390 H 71.19318372534991 96.33701131737865 84.03732833736268 H 0.0 **** 0.06
15391 C 13.761794538721546 93.6677870432371 15.367705891724626 C 0.0 **** -0.24
15392 H 13.877468960131125 94.2457705775121 16.284787921761932 H 0.0 **** 0.06
15393 H 14.148868954173622 94.24166993917484 14.526415385224055 H 0.0 **** 0.06
15394 H 12.705863051123998 93.44991711345045 15.206174537168039 H 0.0 **** 0.06
15395 H 14.315088957215096 92.73310861668563 15.456365141723893 H 0.0 **** 0.06
15396 C 114.74753696401544 46.89479068263475 35.183001608206254 C 0.0 **** -0.24
15397 H 115.19048621994916 47.86900087765281 34.97208334201497 H 0.0 **** 0.06
15398 H 113.72579518148929 46.87111615850989 34.803405452425295 H 0.0 **** 0.06
15399 H 114.740256639741 46.72362982699124 36.25892347207616 H 0.0 **** 0.06
15400 H 115.33426073234035 46.11595327497824 34.69471527381464 H 0.0 **** 0.06
15401 C 18.837974838760374 83.14151238791385 58.67479742496829 C 0.0 **** -0.24
15402 H 19.054186164867588 82.27131118546816 59.29412081662275 H 0.0 **** 0.06
15403 H 19.542524286422918 83.18034145023222 57.843885060628224 H 0.0 **** 0.06
15404 H 18.93248461347929 84.04722210754994 59.27457390175368 H 0.0 **** 0.06
15405 H 17.8226032619653 83.06802888703618 58.287120215903144 H 0.0 **** 0.06
15406 C 56.76402776539899 84.43381198970073 35.271243087939865 C 0.0 **** -0.24
15407 H 57.61453511101115 85.08190477454883 35.48254372363101 H 0.0 **** 0.06
15408 H 55.892307962227505 85.0443307282105 35.03631883749745 H 0.0 **** 0.06
15409 H 56.552439663377584 83.81733402689375 36.144691621015966 H 0.0 **** 0.06
15410 H 56.998886742915204 83.79254083066928 34.42127863656219 H 0.0 **** 0.06
15411 C 45.92650050047902 21.09194672097185 108.19525840477658 C 0.0 **** -0.24
15412 H 46.57136788864037 20.393571874840664 107.66121287213994 H 0.0 **** 0.06
15413 H 44.88505663848218 20.803809698518588 108.0560763661521 H 0.0 **** 0.06
15414 H 46.08120277852538 22.0982588004842 107.80508253220995 H 0.0 **** 0.06
15415 H 46.17103457515948 21.071953140878314 109.25728773976654 H 0.0 **** 0.06
15416 C 9.667695971409472 99.11433719456059 79.25319334997272 C 0.0 **** -0.24
15417 H 10.658432844017057 98.86602531160938 78.87262979405295 H 0.0 **** 0.06
15418 H 8.94489349886652 98.38558403116829 78.88666318170243 H 0.0 **** 0.06
15419 H 9.386201026219908 100.11081996759088 78.91113237703539 H 0.0 **** 0.06
15420 H 9.683346272042797 99.09569094291663 80.34336691729408 H 0.0 **** 0.06
15421 C 73.34409002569632 97.44148385320386 19.040186143314173 C 0.0 **** -0.24
15422 H 74.1972544730099 97.12814937081197 18.43770548111803 H 0.0 **** 0.06
15423 H 72.74137083465493 98.15223657982875 18.47352735075569 H 0.0 **** 0.06
15424 H 73.69982734158452 97.91516221667854 19.954269640874116 H 0.0 **** 0.06
15425 H 72.73893914402652 96.57108011989038 19.29338311421094 H 0.0 **** 0.06
15426 C 18.273134136190553 107.69504901681077 30.337453774909328 C 0.0 **** -0.24
15427 H 19.100912699699332 107.42751828650964 29.68116962274493 H 0.0 **** 0.06
15428 H 18.445798547669895 108.68793523226209 30.754302674046762 H 0.0 **** 0.06
15429 H 18.201203655182464 106.96809152692936 31.146144538544903 H 0.0 **** 0.06
15430 H 17.34392653083097 107.69709494185506 29.767632744207496 H 0.0 **** 0.06
15431 C 93.12979983296452 75.04269356700493 65.66268912117582 C 0.0 **** -0.24
15432 H 92.67329294811532 75.99699062485809 65.92812581431278 H 0.0 **** 0.06
15433 H 92.8694254535148 74.29491955879075 66.41201228268915 H 0.0 **** 0.06
15434 H 94.2126018415025 75.15706233790834 65.622223009972 H 0.0 **** 0.06
15435 H 92.76174469185605 74.72340072908739 64.68745300361664 H 0.0 **** 0.06
15436 C 8.095264129277222 2.971456601195058 75.86010761731589 C 0.0 **** -0.24
15437 H 7.3571799449916995 2.3714436112921504 76.39367222802818 H 0.0 **** 0.06
15438 H 9.075523967654739 2.5034428015486725 75.94770139456921 H 0.0 **** 0.06
15439 H 8.129574396882749 3.971817632085873 76.2926242401713 H 0.0 **** 0.06
15440 H 7.815901161991722 3.0391421525188207 74.80860584637622 H 0.0 **** 0.06
15441 C 75.57382856251155 26.907921887095256 85.19170902547759 C 0.0 **** -0.24
15442 H 75.12069318836978 27.735821770136397 84.64562740966804 H 0.0 **** 0.06
15443 H 75.61706345328076 27.15298395132902 86.25309176266816 H 0.0 **** 0.06
15444 H 76.58271180792471 26.736637235485034 84.81611065014812 H 0.0 **** 0.06
15445 H 74.9755764961622 26.008339073831962 85.04916374852462 H 0.0 **** 0.06
15446 C 82.18480143988441 115.7143246525206 92.91288494265288 C 0.0 **** -0.24
15447 H 82.29253123362082 116.27222477480565 91.98381196901082 H 0.0 **** 0.06
15448 H 82.97301950046617 114.96457278402362 92.98082893311548 H 0.0 **** 0.06
15449 H 81.21196614770491 115.22177430099262 92.93042579685437 H 0.0 **** 0.06
15450 H 82.26005599101296 116.39860776285889 93.75829512300666 H 0.0 **** 0.06
15451 C 103.21081374032966 35.259686243524214 88.35574023478651 C 0.0 **** -0.24
15452 H 102.44041897414047 34.86943937406029 87.6909318179226 H 0.0 **** 0.06
15453 H 102.93500672347542 36.26313965508916 88.6804227308096 H 0.0 **** 0.06
15454 H 104.16307375358727 35.29843931935923 87.82654363057776 H 0.0 **** 0.06
15455 H 103.30390559938164 34.608848516913724 89.22520106275888 H 0.0 **** 0.06
15456 C 88.02859232493915 86.29811023233566 20.75245332878611 C 0.0 **** -0.24
15457 H 87.54161390717263 85.34150700902967 20.93989723164153 H 0.0 **** 0.06
15458 H 87.27042968079218 87.06409408434658 20.58442890858478 H 0.0 **** 0.06
15459 H 88.66359404589781 86.21501766817627 19.869664291959094 H 0.0 **** 0.06
15460 H 88.6375266209792 86.57118698383437 21.6140495532254 H 0.0 **** 0.06
15461 C 15.050977674910971 71.50154031085322 66.42313210634521 C 0.0 **** -0.24
15462 H 15.515111034921482 70.5813698073772 66.06844855139533 H 0.0 **** 0.06
15463 H 15.132612875515921 72.26920255309864 65.65410135333795 H 0.0 **** 0.06
15464 H 15.556137325548153 71.83747336564147 67.32856662116578 H 0.0 **** 0.06
15465 H 13.998574850327653 71.3168687819379 66.64193285885969 H 0.0 **** 0.06
15466 C 111.63648520341343 65.49413921274606 103.98541971800398 C 0.0 **** -0.24
15467 H 112.40037672846775 66.2577956680247 103.84299620616895 H 0.0 **** 0.06
15468 H 110.95379260653588 65.49923837078498 103.13602301968271 H 0.0 **** 0.06
15469 H 111.08082722605448 65.70260670290025 104.90018500795608 H 0.0 **** 0.06
15470 H 112.11193466970408 64.51598984240727 104.06425266911086 H 0.0 **** 0.06
15471 C 104.85210890667005 96.26424995812943 36.925494941717545 C 0.0 **** -0.24
15472 H 104.1635880958363 97.1009235024776 37.04192265150172 H 0.0 **** 0.06
15473 H 104.30243175402683 95.32703932211535 37.01227174272549 H 0.0 **** 0.06
15474 H 105.615673575892 96.3122157185461 37.701981423464446 H 0.0 **** 0.06
15475 H 105.32692746861849 96.31842051032993 35.94516493244927 H 0.0 **** 0.06
15476 C 79.63779746537008 29.932060060218248 78.1418019072716 C 0.0 **** -0.24
15477 H 79.03879300798604 29.882141741838183 79.05129231854161 H 0.0 **** 0.06
15478 H 79.02104701387435 29.659151576777617 77.28531966923666 H 0.0 **** 0.06
15479 H 80.47654806618499 29.241524889259637 78.22141026075462 H 0.0 **** 0.06
15480 H 80.01393319139052 30.946635030473402 78.01006536720422 H 0.0 **** 0.06
15481 C 109.25396992611928 106.57943272141748 18.01281703930514 C 0.0 **** -0.24
15482 H 109.01503980803429 106.07258358908288 18.94751714875993 H 0.0 **** 0.06
15483 H 108.49983864201934 106.33580923046429 17.26383131110829 H 0.0 **** 0.06
15484 H 110.23301097378237 106.25186496393013 17.661574929323773 H 0.0 **** 0.06
15485 H 109.26886806589954 107.65665535770802 18.1770953837209 H 0.0 **** 0.06
15486 C 95.48275988308617 53.70957960594502 34.40316160754378 C 0.0 **** -0.24
15487 H 95.79354104797989 53.36384332900749 33.41716339672632 H 0.0 **** 0.06
15488 H 96.18505158138811 54.46170631335423 34.76179054967383 H 0.0 **** 0.06
15489 H 95.46588035670908 52.86685354884104 35.09471773361349 H 0.0 **** 0.06
15490 H 94.48556226763424 54.14463844618265 34.3371412864372 H 0.0 **** 0.06
15491 C 33.57801310143559 76.10933329324868 36.36248741363136 C 0.0 **** -0.24
15492 H 33.27394584639987 76.9393693329933 35.7251011745478 H 0.0 **** 0.06
15493 H 32.878818524485865 76.01471661885702 37.193360206527245 H 0.0 **** 0.06
15494 H 34.57950126782764 76.29602919005708 36.750432091985545 H 0.0 **** 0.06
15495 H 33.57922961790376 75.18661505761042 35.78162720325753 H 0.0 **** 0.06
15496 C 60.76448753120894 74.30688676824877 15.490512561601754 C 0.0 **** -0.24
15497 H 59.750595881562816 74.24289004524303 15.883511309225423 H 0.0 **** 0.06
15498 H 61.01548167037322 73.3770633189956 14.978809193916856 H 0.0 **** 0.06
15499 H 61.462673044686454 74.46971834147001 16.311910069395378 H 0.0 **** 0.06
15500 H 60.83049299515079 75.1376051307621 14.788323689348143 H 0.0 **** 0.06
15501 C 108.69362670845564 74.6636519145527 59.45106779810595 C 0.0 **** -0.24
15502 H 108.73024531874378 75.5814627204374 60.0381933268481 H 0.0 **** 0.06
15503 H 108.27961754401326 73.85978791611103 60.06006457218621 H 0.0 **** 0.06
15504 H 109.70071698873585 74.39748085432393 59.13067885082609 H 0.0 **** 0.06
15505 H 108.06227559201264 74.81837833201485 58.57522217323071 H 0.0 **** 0.06
15506 C 1.7864502637964659 74.88850028489696 64.92695740062695 C 0.0 **** -0.24
15507 H 1.0967859096054635 75.56346565134933 65.43469340551712 H 0.0 **** 0.06
15508 H 1.2819809394123478 73.94666451349534 64.7132262732722 H 0.0 **** 0.06
15509 H 2.6490600582092956 74.70319440513805 65.56659558580014 H 0.0 **** 0.06
15510 H 2.117899675861164 75.34479909763962 63.99332859832734 H 0.0 **** 0.06
15511 C 32.37878215421918 3.31254476558469 69.35208995113092 C 0.0 **** -0.24
15512 H 32.21155520613402 2.2712962476886673 69.62741998835318 H 0.0 **** 0.06
15513 H 31.426418488398525 3.8433659488054275 69.34149137210312 H 0.0 **** 0.06
15514 H 32.83154723276692 3.358755836016371 68.36127799687117 H 0.0 **** 0.06
15515 H 33.045918002750255 3.7776926756090035 70.07798123851848 H 0.0 **** 0.06
15516 C 90.56730179164461 76.74518374439415 78.64223471225262 C 0.0 **** -0.24
15517 H 89.78130717592384 76.98779080722778 79.35829847848385 H 0.0 **** 0.06
15518 H 90.63370787871096 75.6623362992924 78.52994627515164 H 0.0 **** 0.06
15519 H 91.5192902799464 77.13268196530248 79.00470677460157 H 0.0 **** 0.06
15520 H 90.33314115728064 77.19770169531802 77.67928134064601 H 0.0 **** 0.06
15521 C 3.988432493977342 54.498517340827526 27.49943928480053 C 0.0 **** -0.24
15522 H 4.243632575670404 54.197233173735206 28.515731945319885 H 0.0 **** 0.06
15523 H 4.801822935112725 55.09071766393259 27.08181187611075 H 0.0 **** 0.06
15524 H 3.0759141014376326 55.09420165026444 27.51656633409118 H 0.0 **** 0.06
15525 H 3.8319478682671217 53.61137297505032 26.886892697547353 H 0.0 **** 0.06
15526 C 96.17242323834205 40.22834079353457 16.757542949540266 C 0.0 **** -0.24
15527 H 96.13419728734715 40.40306554888019 15.682134643601103 H 0.0 **** 0.06
15528 H 97.09103344092088 39.69704254734134 17.005992984612107 H 0.0 **** 0.06
15529 H 95.31284005986063 39.6290893005499 17.058724634167532 H 0.0 **** 0.06
15530 H 96.15130377343607 41.18440260920988 17.281118893240773 H 0.0 **** 0.06
15531 C 30.15010740715516 94.78879267981372 0.7327694623842831 C 0.0 **** -0.24
15532 H 29.97305255437388 94.42886306441983 -0.28135690487039255 H 0.0 **** 0.06
15533 H 30.197041301174437 95.87882716945651 0.7280663117417134 H 0.0 **** 0.06
15534 H 31.093598115003942 94.38621257641802 1.101989636410849 H 0.0 **** 0.06
15535 H 29.33706971270354 94.46315164657264 1.3808485707741056 H 0.0 **** 0.06
15536 C 88.19024534376791 39.62961929098364 110.49920208605717 C 0.0 **** -0.24
15537 H 87.96991690156227 40.13046172112544 111.44212797174498 H 0.0 **** 0.06
15538 H 87.43678639513325 38.8648220885695 110.31055473513268 H 0.0 **** 0.06
15539 H 89.17416397717841 39.16400427356044 110.55624370450882 H 0.0 **** 0.06
15540 H 88.17931296163226 40.35822333716081 109.68973282589765 H 0.0 **** 0.06
15541 C 28.17419846634664 109.84101380686712 23.85160576949891 C 0.0 **** -0.24
15542 H 28.282507212205076 110.64058297776585 23.11842888082012 H 0.0 **** 0.06
15543 H 27.410268284449614 109.139433353572 23.514432830845735 H 0.0 **** 0.06
15544 H 27.880937491526197 110.26544537513358 24.811244112148515 H 0.0 **** 0.06
15545 H 29.125385532862197 109.31806983622734 23.961673309411978 H 0.0 **** 0.06
15546 C 47.56798167341523 103.37558812250657 73.28123088257357 C 0.0 **** -0.24
15547 H 48.3003909002158 103.71520823930013 74.01368079518758 H 0.0 **** 0.06
15548 H 47.55116305296063 104.06646339536167 72.43755408965254 H 0.0 **** 0.06
15549 H 46.58077362409122 103.34198602443678 73.74356864949718 H 0.0 **** 0.06
15550 H 47.8388778841711 102.3798910929454 72.93034112344606 H 0.0 **** 0.06
15551 C 114.17587856954232 97.12640550131619 77.5881406652747 C 0.0 **** -0.24
15552 H 113.75280544402241 97.58547006859408 78.48110693662775 H 0.0 **** 0.06
15553 H 113.92480178386789 97.73078377293186 76.71525611285603 H 0.0 **** 0.06
15554 H 113.76630799181518 96.12391865759264 77.46631290002787 H 0.0 **** 0.06
15555 H 115.2592267990328 97.06661129230957 77.68917131524483 H 0.0 **** 0.06
15556 C 65.12870306894675 67.71197619382599 25.24173211599907 C 0.0 **** -0.24
15557 H 65.8800134414605 68.23656093558179 24.65250341229944 H 0.0 **** 0.06
15558 H 64.14164658173553 67.890172195763 24.814507739949818 H 0.0 **** 0.06
15559 H 65.15177323049747 68.07648293047552 26.269281452411064 H 0.0 **** 0.06
15560 H 65.34063487896688 66.64236948415473 25.230896194939533 H 0.0 **** 0.06
15561 C 82.54749476508383 76.75091349844934 4.78358769636508 C 0.0 **** -0.24
15562 H 81.79978748447303 75.99365629139805 5.019556582054211 H 0.0 **** 0.06
15563 H 82.2987889612348 77.68004537214767 5.296950514774672 H 0.0 **** 0.06
15564 H 82.56151934331797 76.92371353574708 3.7071424058098366 H 0.0 **** 0.06
15565 H 83.52864455130148 76.40674470883073 5.1102433095293645 H 0.0 **** 0.06
15566 C 30.065138816972592 84.58518729130668 30.267441340326485 C 0.0 **** -0.24
15567 H 29.09591696352979 84.5950128688196 30.766002689730954 H 0.0 **** 0.06
15568 H 29.95002358903372 84.18816435948463 29.25868653254544 H 0.0 **** 0.06
15569 H 30.75502364373085 83.95570263951231 30.82962811762434 H 0.0 **** 0.06
15570 H 30.458653361787583 85.60025088468711 30.216156310027117 H 0.0 **** 0.06
15571 C 29.769998222999334 45.018608521358345 79.2697629245447 C 0.0 **** -0.24
15572 H 29.038633308890894 44.76064477191008 78.50370415244618 H 0.0 **** 0.06
15573 H 29.305166858813664 45.66714858065697 80.01248600327244 H 0.0 **** 0.06
15574 H 30.611063028226113 45.53615443094631 78.80920766536266 H 0.0 **** 0.06
15575 H 30.124834360546203 44.10750429356645 79.75350922040329 H 0.0 **** 0.06
15576 C 91.20494026840817 86.71744601249821 67.38283056404845 C 0.0 **** -0.24
15577 H 90.5809708034864 86.77405789081388 66.49173063685208 H 0.0 **** 0.06
15578 H 92.11959854567868 87.28868645233729 67.22275999752094 H 0.0 **** 0.06
15579 H 91.45675511258906 85.67656460495016 67.58554744902494 H 0.0 **** 0.06
15580 H 90.66256262624054 87.13167400692487 68.23252792568604 H 0.0 **** 0.06
15581 C 42.03931641862127 20.740717220441752 75.6210053631473 C 0.0 **** -0.24
15582 H 41.82285956275419 21.546501973243124 76.32249045495612 H 0.0 **** 0.06
15583 H 43.05466086365968 20.380711213807615 75.78262904375498 H 0.0 **** 0.06
15584 H 41.94261830120303 21.112593391620607 74.60147974158266 H 0.0 **** 0.06
15585 H 41.333565679075946 19.924167183745112 75.77773433913373 H 0.0 **** 0.06
15586 C 10.363792250692597 111.46991527509942 16.160346792211698 C 0.0 **** -0.24
15587 H 9.677528347981138 112.30834324589352 16.043495056142717 H 0.0 **** 0.06
15588 H 9.90318773436718 110.56572080756519 15.764642729293087 H 0.0 **** 0.06
15589 H 10.590167587539327 111.33112583079497 17.217248220994293 H 0.0 **** 0.06
15590 H 11.285240631298507 111.6777548395342 15.615448062995796 H 0.0 **** 0.06
15591 C 6.3227355350664 53.509323019644 56.7388513142331 C 0.0 **** -0.24
15592 H 5.263135270436365 53.48882915478478 56.48551714293205 H 0.0 **** 0.06
15593 H 6.916036697201406 53.38714308174153 55.83233281231307 H 0.0 **** 0.06
15594 H 6.546208492194182 52.697949200706404 57.431375909071676 H 0.0 **** 0.06
15595 H 6.565989835689493 54.46426899857633 57.20627785788318 H 0.0 **** 0.06
15596 C 101.24716914625554 38.89176253910364 47.43541450720409 C 0.0 **** -0.24
15597 H 101.46262172189836 38.06027313924963 48.10678143784273 H 0.0 **** 0.06
15598 H 102.12612377327684 39.10310675324308 46.82545514765539 H 0.0 **** 0.06
15599 H 100.98957849608098 39.77444529051496 48.020219728098226 H 0.0 **** 0.06
15600 H 100.41013807830188 38.62721174575054 46.78782285851253 H 0.0 **** 0.06
15601 C 62.14306646394019 50.21900491847862 57.40583401860283 C 0.0 **** -0.24
15602 H 61.05679993288038 50.286694900930854 57.33960635186975 H 0.0 **** 0.06
15603 H 62.58426626122551 51.171629649812814 57.109590992719404 H 0.0 **** 0.06
15604 H 62.49859233396819 49.430830044427125 56.742011226604916 H 0.0 **** 0.06
15605 H 62.43145769893766 49.98829546566765 58.430504944963445 H 0.0 **** 0.06
15606 C 93.37634790565374 105.89816403894764 38.490591101222975 C 0.0 **** -0.24
15607 H 93.93831826653991 106.69167729405359 37.99643719477233 H 0.0 **** 0.06
15608 H 92.7897430990727 105.35377775797849 37.75022404871871 H 0.0 **** 0.06
15609 H 92.70924071343393 106.33574632608412 39.233413901479224 H 0.0 **** 0.06
15610 H 94.06917407647865 105.21436225077039 38.981118351252064 H 0.0 **** 0.06
15611 C 73.31163769056502 110.28818264202587 50.83323158612362 C 0.0 **** -0.24
15612 H 73.92818413260818 110.14306270798048 49.945264387345674 H 0.0 **** 0.06
15613 H 73.47631892930065 109.46376343018267 51.52785888705142 H 0.0 **** 0.06
15614 H 72.2615779644888 110.31701033369322 50.54471742780211 H 0.0 **** 0.06
15615 H 73.58317279332306 111.22846049378691 51.31350259151594 H 0.0 **** 0.06
15616 C 5.540953363604729 109.97981885801217 113.59298956900813 C 0.0 **** -0.24
15617 H 5.70198169562434 109.79626024605227 114.65562079316351 H 0.0 **** 0.06
15618 H 4.561772800854243 110.43800451435133 113.44877660923787 H 0.0 **** 0.06
15619 H 5.584291000062223 109.03611723469578 113.05022350580813 H 0.0 **** 0.06
15620 H 6.313533165123317 110.6503730436306 113.21901577358739 H 0.0 **** 0.06
15621 C 20.158476148966713 40.49544347162196 28.651487409086826 C 0.0 **** -0.24
15622 H 20.758140442810486 39.6802208077686 29.058482259894816 H 0.0 **** 0.06
15623 H 20.45155496214818 40.68021159836267 27.617656882989223 H 0.0 **** 0.06
15624 H 20.322876519557497 41.396425666319594 29.242536958791874 H 0.0 **** 0.06
15625 H 19.104256875615704 40.22368243391033 28.688237091327068 H 0.0 **** 0.06
15626 C 6.555831523153998 64.80092660351556 71.61798471348834 C 0.0 **** -0.24
15627 H 6.734225221037832 63.825218206739386 72.07175433921492 H 0.0 **** 0.06
15628 H 6.383251086799888 65.53928867076522 72.40140506756117 H 0.0 **** 0.06
15629 H 5.67983403839159 64.7459987738263 70.97163008249748 H 0.0 **** 0.06
15630 H 7.4252663610621 65.09165911305908 71.02858534106298 H 0.0 **** 0.06
15631 C 2.5369431130231987 105.6327917489385 3.1637176052177125 C 0.0 **** -0.24
15632 H 2.366604222037168 105.35009549768625 2.124829033734642 H 0.0 **** 0.06
15633 H 1.5953437471714693 105.591060879569 3.7110603902448958 H 0.0 **** 0.06
15634 H 2.9358210252005676 106.64693770894235 3.2034594033494415 H 0.0 **** 0.06
15635 H 3.2515725477327493 104.94307578148027 3.6136405575318804 H 0.0 **** 0.06
15636 C 92.64389436954488 86.1895922574455 13.891832357854554 C 0.0 **** -0.24
15637 H 92.67472164027785 85.23074123536128 13.376183975788734 H 0.0 **** 0.06
15638 H 92.37640520424668 86.03177037514214 14.93698775593873 H 0.0 **** 0.06
15639 H 91.9008434759563 86.83161524106998 13.419319084616319 H 0.0 **** 0.06
15640 H 93.62372822999254 86.66480084142009 13.835659160603711 H 0.0 **** 0.06
15641 C 79.96612583140274 55.66086826921037 7.6069254364599885 C 0.0 **** -0.24
15642 H 79.44550573605974 55.164775909405535 6.787638509623392 H 0.0 **** 0.06
15643 H 81.01916675120108 55.3807986983565 7.590318407865894 H 0.0 **** 0.06
15644 H 79.52360749468613 55.35809996452542 8.555699284703593 H 0.0 **** 0.06
15645 H 79.87575103536767 56.74117807750849 7.492077282577725 H 0.0 **** 0.06
15646 C 9.485143541749778 0.9172752477560753 95.63053343348568 C 0.0 **** -0.24
15647 H 9.138296461701486 1.3248934635909002 96.57985763177984 H 0.0 **** 0.06
15648 H 8.656233811400625 0.42338680490858493 95.12356023247406 H 0.0 **** 0.06
15649 H 10.280759712102963 0.1951125418151065 95.81370247917823 H 0.0 **** 0.06
15650 H 9.864406867126888 1.7258673911365054 95.00546619186309 H 0.0 **** 0.06
15651 C 39.234732186273995 88.69215682525885 22.03850237428593 C 0.0 **** -0.24
15652 H 38.53461266412844 88.11356371981961 21.435767237139267 H 0.0 **** 0.06
15653 H 40.23511464147758 88.61062761263148 21.610405369332668 H 0.0 **** 0.06
15654 H 39.24254866423566 88.3054270954024 23.05684460517434 H 0.0 **** 0.06
15655 H 38.92836915696567 89.73754346696569 22.048007753517734 H 0.0 **** 0.06
15656 C 71.47228255031479 78.76095486434525 114.78921373508334 C 0.0 **** -0.24
15657 H 72.50826559203603 79.08675702134457 114.87140220415618 H 0.0 **** 0.06
15658 H 71.4365691111133 77.77887955618058 114.31704042047912 H 0.0 **** 0.06
15659 H 70.91357856114806 79.47487480534272 114.18357178932258 H 0.0 **** 0.06
15660 H 71.02902599613384 78.70309841427081 115.78339240623204 H 0.0 **** 0.06
15661 C 112.52458904189697 21.90136797690792 9.731851091872329 C 0.0 **** -0.24
15662 H 111.46682617690037 22.060659308009804 9.94047021503033 H 0.0 **** 0.06
15663 H 112.9135450167815 21.129312823499845 10.396439768458507 H 0.0 **** 0.06
15664 H 113.07100812367766 22.829997171891677 9.893380988826308 H 0.0 **** 0.06
15665 H 112.64603203738638 21.58324446679694 8.69569614134194 H 0.0 **** 0.06
15666 C 103.81903017469824 114.10420691287402 88.25451639701907 C 0.0 **** -0.24
15667 H 104.84382001945747 114.47428707173674 88.27095951056052 H 0.0 **** 0.06
15668 H 103.74321214431507 113.2761759455882 87.54962610941786 H 0.0 **** 0.06
15669 H 103.14833184292098 114.9073642078983 87.94711251365786 H 0.0 **** 0.06
15670 H 103.54118868403745 113.76183138962028 89.25126163112319 H 0.0 **** 0.06
15671 C 12.714054268896575 36.02682526055217 95.0651087992737 C 0.0 **** -0.24
15672 H 12.556495340033734 35.84405436546394 96.12842671690848 H 0.0 **** 0.06
15673 H 12.636336651507293 35.08585668676505 94.52097458058643 H 0.0 **** 0.06
15674 H 13.704184411729756 36.45461484042948 94.91334832470798 H 0.0 **** 0.06
15675 H 11.957241682872109 36.721594398942194 94.70064682480748 H 0.0 **** 0.06
15676 C 77.18787662835945 102.82834315363513 107.13056519577802 C 0.0 **** -0.24
15677 H 77.35762450673519 102.11506481254247 107.93804938680492 H 0.0 **** 0.06
15678 H 76.15877106255493 103.18553696563913 107.1718119479462 H 0.0 **** 0.06
15679 H 77.36533172357053 102.34078745435531 106.17167514600177 H 0.0 **** 0.06
15680 H 77.87075629797951 103.67071263491312 107.24192044356391 H 0.0 **** 0.06
15681 C 52.16257654397114 18.303835678417588 104.01615475497712 C 0.0 **** -0.24
15682 H 51.710166822079174 19.235570619982372 104.35487347978645 H 0.0 **** 0.06
15683 H 53.03489398891716 18.07894750595401 104.63031644825912 H 0.0 **** 0.06
15684 H 52.46743076970952 18.405276611123817 102.97431377104488 H 0.0 **** 0.06
15685 H 51.43647252663638 17.495482859294025 104.10467404101709 H 0.0 **** 0.06
15686 C 16.024964937837808 4.661319132949345 9.970363748109566 C 0.0 **** -0.24
15687 H 17.050761227710666 4.3413282712212435 10.157087789245981 H 0.0 **** 0.06
15688 H 15.377319849080408 3.785621295380139 9.912362095694476 H 0.0 **** 0.06
15689 H 15.980319588228951 5.209329898323176 9.03003727960093 H 0.0 **** 0.06
15690 H 15.692442689239272 5.305685889673413 10.783406383969321 H 0.0 **** 0.06
15691 C 6.377775694997709 73.1895700830944 93.93834231248488 C 0.0 **** -0.24
15692 H 6.479804505132336 72.80978416836228 92.92198670616972 H 0.0 **** 0.06
15693 H 6.284407769499026 72.35303070924004 94.63116934449289 H 0.0 **** 0.06
15694 H 5.487682818528569 73.81649475731513 94.00451769237137 H 0.0 **** 0.06
15695 H 7.256922792742088 73.7798224545835 94.19592813773721 H 0.0 **** 0.06
15696 C 5.69675260642731 64.14496194831375 16.79839877007197 C 0.0 **** -0.24
15697 H 5.501983731597335 65.09222582006689 17.301455645572474 H 0.0 **** 0.06
15698 H 6.7616863172821695 64.0621172007927 16.5808305852523 H 0.0 **** 0.06
15699 H 5.130756271682543 64.10498383391263 15.867685673020162 H 0.0 **** 0.06
15700 H 5.391981758039094 63.32170227325246 17.445423708689873 H 0.0 **** 0.06
15701 C 59.616200223679755 55.26351486350601 11.721124722573052 C 0.0 **** -0.24
15702 H 59.37497506102636 56.26114204581312 11.350755261609947 H 0.0 **** 0.06
15703 H 60.647837000098264 55.2485491598658 12.074282788235934 H 0.0 **** 0.06
15704 H 59.495744356796536 54.53870921999161 10.915888646900555 H 0.0 **** 0.06
15705 H 58.94594341603573 55.01013803241707 12.542650725118307 H 0.0 **** 0.06
15706 C 50.68582026297332 54.43953137230696 39.987821105177545 C 0.0 **** -0.24
15707 H 50.626786923289444 55.3032943970758 40.649674895095984 H 0.0 **** 0.06
15708 H 50.38842342199439 54.7333894142981 38.98147051880312 H 0.0 **** 0.06
15709 H 50.01914346791716 53.65758435592872 40.35086773652985 H 0.0 **** 0.06
15710 H 51.70987136301733 54.06551652926112 39.97043572316787 H 0.0 **** 0.06
15711 C 53.592548941206324 114.76256267659369 101.88688415145074 C 0.0 **** -0.24
15712 H 54.470068773675735 114.96558904250509 101.2726413412272 H 0.0 **** 0.06
15713 H 53.12748271755041 113.83260107394335 101.55959406892444 H 0.0 **** 0.06
15714 H 52.87992943476762 115.58131979236077 101.78305140075975 H 0.0 **** 0.06
15715 H 53.89279171345603 114.67247994029293 102.9305264779835 H 0.0 **** 0.06
15716 C 65.66346870536259 102.4191153628413 85.20316116041187 C 0.0 **** -0.24
15717 H 65.28130422648766 101.91760925414499 86.09227133227176 H 0.0 **** 0.06
15718 H 64.8308912233203 102.69146251459145 84.55376160140992 H 0.0 **** 0.06
15719 H 66.33628175573241 101.74742208097209 84.6694208341026 H 0.0 **** 0.06
15720 H 66.20440584095985 103.3180887599672 85.49649328759307 H 0.0 **** 0.06
15721 C 108.7178679274725 66.58315437194608 62.1014006058098 C 0.0 **** -0.24
15722 H 107.63307511795779 66.48400097693968 62.14123947213437 H 0.0 **** 0.06
15723 H 109.17990558587138 65.61399337844347 62.291703486379475 H 0.0 **** 0.06
15724 H 109.04528805906784 67.29680473827813 62.85771945491541 H 0.0 **** 0.06
15725 H 109.01399299325976 66.93980775294892 61.114293041025974 H 0.0 **** 0.06
15726 C 7.357605963790377 65.27149207398523 67.3622346942912 C 0.0 **** -0.24
15727 H 8.081053885274187 64.87934707102738 66.64771643494177 H 0.0 **** 0.06
15728 H 6.404885798494163 64.75660084232842 67.23497777860752 H 0.0 **** 0.06
15729 H 7.2193002544479725 66.33935170556887 67.1912190871104 H 0.0 **** 0.06
15730 H 7.72480980370382 65.11032453995324 68.37588667741915 H 0.0 **** 0.06
15731 C 51.593432814416026 50.027211838321705 99.70767337043782 C 0.0 **** -0.24
15732 H 52.19338213507084 49.76332214786427 100.57824328286125 H 0.0 **** 0.06
15733 H 51.84477508571063 51.03894169705373 99.38579163287105 H 0.0 **** 0.06
15734 H 50.535984362095355 49.98017310523528 99.96754850277472 H 0.0 **** 0.06
15735 H 51.80028832869111 49.32639672073557 98.89839469371432 H 0.0 **** 0.06
15736 C 106.62650455178897 2.44583538708423 109.04945846656341 C 0.0 **** -0.24
15737 H 105.92204099939238 2.0761819387298317 109.79455335674513 H 0.0 **** 0.06
15738 H 106.7315464153967 1.7091034647352075 108.25229517404685 H 0.0 **** 0.06
15739 H 107.59620128248699 2.6143366438801365 109.51710095936988 H 0.0 **** 0.06
15740 H 106.25642867021449 3.3822372733582995 108.6322219601833 H 0.0 **** 0.06
15741 C 19.976726473358003 61.922449276136156 33.784191642214694 C 0.0 **** -0.24
15742 H 20.595893661443913 62.40670180873577 33.0294636069716 H 0.0 **** 0.06
15743 H 18.946487190133467 62.26492652132978 33.68351710375822 H 0.0 **** 0.06
15744 H 20.349217984383774 62.176193428058006 34.776887956647954 H 0.0 **** 0.06
15745 H 20.01608749361458 60.841356713788635 33.64698884729802 H 0.0 **** 0.06
15746 C 7.255688376857634 84.62947254711816 69.73225253284801 C 0.0 **** -0.24
15747 H 7.205867739745685 84.6865381076887 70.82044759621755 H 0.0 **** 0.06
15748 H 6.330110578172452 85.01849092447048 69.30721907576805 H 0.0 **** 0.06
15749 H 7.387674960437437 83.59127007535238 69.42919960353612 H 0.0 **** 0.06
15750 H 8.097184315216964 85.22315149452481 69.37573488449038 H 0.0 **** 0.06
15751 C 54.272005790014646 101.24244629875486 68.75568064960805 C 0.0 **** -0.24
15752 H 53.39502329762513 100.94260296907902 69.32929519546883 H 0.0 **** 0.06
15753 H 54.90376364110688 100.3726546877727 68.57725839547697 H 0.0 **** 0.06
15754 H 54.83344579961573 101.99145121241031 69.3144952370302 H 0.0 **** 0.06
15755 H 53.955778964721446 101.66343643055484 67.80074089783761 H 0.0 **** 0.06
15756 C 11.775475495410205 75.10246957136599 74.21484821447075 C 0.0 **** -0.24
15757 H 11.270865793982367 74.73212848695562 73.32155397862283 H 0.0 **** 0.06
15758 H 12.775721173139715 75.44490749783245 73.95085621094842 H 0.0 **** 0.06
15759 H 11.847289764942673 74.30118286788445 74.94927942838811 H 0.0 **** 0.06
15760 H 11.206680110436253 75.93163285835351 74.63591713109602 H 0.0 **** 0.06
15761 C 108.32055837918651 50.270082729514314 98.45236764728062 C 0.0 **** -0.24
15762 H 109.13572417086903 49.87876385686363 99.06172902304695 H 0.0 **** 0.06
15763 H 108.23494331121447 49.680625625118495 97.53918837607466 H 0.0 **** 0.06
15764 H 108.52601299881036 51.31022385970286 98.1956715158845 H 0.0 **** 0.06
15765 H 107.38781037679021 50.21154882228228 99.01241929934824 H 0.0 **** 0.06
15766 C 46.158133022252 15.973357270866071 94.38310255189526 C 0.0 **** -0.24
15767 H 46.55942475035229 15.487545791840958 93.49314346433363 H 0.0 **** 0.06
15768 H 45.09894288401699 16.184945547731697 94.23397286564429 H 0.0 **** 0.06
15769 H 46.69436102465929 16.905542141332432 94.5604182396666 H 0.0 **** 0.06
15770 H 46.280065687781615 15.314055628126987 95.24284191286526 H 0.0 **** 0.06
15771 C 49.97503676481037 9.36825604080169 10.976231278178886 C 0.0 **** -0.24
15772 H 48.95872286433462 9.060910149891072 10.729647565020969 H 0.0 **** 0.06
15773 H 50.65557214646665 8.531460031468537 10.816359312160458 H 0.0 **** 0.06
15774 H 50.01774749346038 9.676802153330005 12.021292576768332 H 0.0 **** 0.06
15775 H 50.267105200515545 10.201823108849489 10.33856690021365 H 0.0 **** 0.06
15776 C 7.39138799471462 104.49701970179012 49.300373318503816 C 0.0 **** -0.24
15777 H 7.884715423402355 105.41408573622886 48.97935484067117 H 0.0 **** 0.06
15778 H 7.534703171671751 103.72347944461268 48.54541620709949 H 0.0 **** 0.06
15779 H 6.3247074158636 104.68439521982361 49.42974879277043 H 0.0 **** 0.06
15780 H 7.819105522458159 104.1662519167734 50.246200092565694 H 0.0 **** 0.06
15781 C 102.01168721998971 56.32401390065718 21.35563810271705 C 0.0 **** -0.24
15782 H 102.79804798182411 56.41668263293667 20.606520471726782 H 0.0 **** 0.06
15783 H 101.4261923647249 55.4251261279303 21.157169885792996 H 0.0 **** 0.06
15784 H 101.36222207420849 57.19822190374788 21.309961427299356 H 0.0 **** 0.06
15785 H 102.45992119900123 56.254887943573635 22.346148472151015 H 0.0 **** 0.06
15786 C 101.8080794708847 76.76291573229832 104.73543804799351 C 0.0 **** -0.24
15787 H 101.72569388591654 77.2888522935371 103.78452149681218 H 0.0 **** 0.06
15788 H 102.85632977492133 76.71536613830679 105.03459594206006 H 0.0 **** 0.06
15789 H 101.41475611130244 75.75248897833805 104.62711707068539 H 0.0 **** 0.06
15790 H 101.23764675187698 77.29569035795333 105.49539962602225 H 0.0 **** 0.06
15791 C 51.547634446410115 50.19410628100087 85.8864696530764 C 0.0 **** -0.24
15792 H 52.11913365684731 49.749927164046824 86.70118893291004 H 0.0 **** 0.06
15793 H 52.106012415517135 51.03035913108866 85.4660101813866 H 0.0 **** 0.06
15794 H 50.58999158171003 50.549829117540014 86.26557297428295 H 0.0 **** 0.06
15795 H 51.376847645036065 49.44508227073874 85.11192399059641 H 0.0 **** 0.06
15796 C 23.78043000524457 111.91891232558737 108.12604598670515 C 0.0 **** -0.24
15797 H 24.654592986456635 111.64088798202086 107.5365329986301 H 0.0 **** 0.06
15798 H 23.964675172027967 112.87324294881671 108.61964173077675 H 0.0 **** 0.06
15799 H 23.590069805539997 111.15244027124395 108.8772593690476 H 0.0 **** 0.06
15800 H 22.91467880073401 112.00956229730897 107.4714504691857 H 0.0 **** 0.06
15801 C 70.97485100668158 102.93651034246548 81.89026594327117 C 0.0 **** -0.24
15802 H 69.91536305707115 102.89581560109053 82.14416399139662 H 0.0 **** 0.06
15803 H 71.09950981005412 103.44412442078186 80.93296338672798 H 0.0 **** 0.06
15804 H 71.37063424373818 101.92432692370619 81.8194266207721 H 0.0 **** 0.06
15805 H 71.51195213047504 103.48377582182786 82.66497094884483 H 0.0 **** 0.06
15806 C 39.733452223590774 2.4182394176197874 53.287379088475575 C 0.0 **** -0.24
15807 H 38.89652189342803 2.912913040822744 52.794295317815624 H 0.0 **** 0.06
15808 H 40.65000873480989 2.615580766869982 52.73144427416622 H 0.0 **** 0.06
15809 H 39.552163867348725 1.3429857159786565 53.31967597701157 H 0.0 **** 0.06
15810 H 39.83409742516986 2.80039109889033 54.30276499910721 H 0.0 **** 0.06
15811 C 5.31054823322485 106.13760921994196 45.565517897996074 C 0.0 **** -0.24
15812 H 5.484810812212009 105.1214971301157 45.21154933694035 H 0.0 **** 0.06
15813 H 6.051468004657275 106.80641013569439 45.12772435981865 H 0.0 **** 0.06
15814 H 5.393253377671353 106.16333322978096 46.65150962388937 H 0.0 **** 0.06
15815 H 4.3110965881799 106.45813151741027 45.26973268743004 H 0.0 **** 0.06
15816 C 68.08188886674915 2.18574619232416 4.199374917014609 C 0.0 **** -0.24
15817 H 68.10917469452463 3.1502240494736213 3.692028953188924 H 0.0 **** 0.06
15818 H 67.36335645495117 1.5344106575299463 3.701624809022917 H 0.0 **** 0.06
15819 H 67.78401393209802 2.3296401746262916 5.23797349758911 H 0.0 **** 0.06
15820 H 69.07101038542302 1.7287098876662128 4.1658724082576555 H 0.0 **** 0.06
15821 C 58.868238815228445 62.02697655637186 10.540265914276546 C 0.0 **** -0.24
15822 H 58.01236042785576 61.490115672810994 10.94854952247266 H 0.0 **** 0.06
15823 H 59.78254442063014 61.47357087626013 10.757591605905532 H 0.0 **** 0.06
15824 H 58.925527286456564 63.017223367953754 10.993060894855688 H 0.0 **** 0.06
15825 H 58.751971977175465 62.12748354693354 9.460653763938723 H 0.0 **** 0.06
15826 C 81.46891487116764 99.4122407246584 33.21639549230997 C 0.0 **** -0.24
15827 H 81.7558610528848 99.44854297277647 34.26643972626351 H 0.0 **** 0.06
15828 H 82.09959812223258 100.0927432971248 32.64424353976432 H 0.0 **** 0.06
15829 H 80.42569826025277 99.70945910834573 33.11335059257465 H 0.0 **** 0.06
15830 H 81.5958713284958 98.39664357327405 32.839392121903586 H 0.0 **** 0.06
15831 C 23.335809563515 12.208986192791173 17.66297162911324 C 0.0 **** -0.24
15832 H 24.26588615746863 11.706932825464719 17.931854477607676 H 0.0 **** 0.06
15833 H 22.50123692852779 11.520137514620302 17.794630262021595 H 0.0 **** 0.06
15834 H 23.383366364093888 12.528345801352827 16.622303234993954 H 0.0 **** 0.06
15835 H 23.194682125491113 13.078747113374277 18.30454387564268 H 0.0 **** 0.06
15836 C 52.93326286507596 39.71727167597004 17.39708770624327 C 0.0 **** -0.24
15837 H 53.43530937771519 39.35770679173112 16.498148088968605 H 0.0 **** 0.06
15838 H 52.365996385059205 40.61740191227665 17.160655362081854 H 0.0 **** 0.06
15839 H 53.676674988275025 39.94585741584177 18.16122249883165 H 0.0 **** 0.06
15840 H 52.2568153816999 38.94722377477211 17.766857837425164 H 0.0 **** 0.06
15841 C 65.3696187730223 2.3650408245595145 46.00438001882544 C 0.0 **** -0.24
15842 H 65.56375576351348 1.4005223005407288 46.4743511401507 H 0.0 **** 0.06
15843 H 64.56112132353263 2.8698590064826988 46.53217579672787 H 0.0 **** 0.06
15844 H 65.08496395706862 2.2106705226036922 44.96313102537077 H 0.0 **** 0.06
15845 H 66.27063349819429 2.976749954325186 46.04720940362467 H 0.0 **** 0.06
15846 C 1.3463901079274478 43.992141850837164 68.69697450886531 C 0.0 **** -0.24
15847 H 1.194185175581481 43.4309247927661 67.7753650458551 H 0.0 **** 0.06
15848 H 0.4741195880799012 44.61803306319191 68.88919152007509 H 0.0 **** 0.06
15849 H 2.2308040804722964 44.621521548693615 68.5971341543852 H 0.0 **** 0.06
15850 H 1.485276594551749 43.29830170269533 69.52544979412656 H 0.0 **** 0.06
15851 C 37.582045507596064 69.79664009688744 101.44949459230563 C 0.0 **** -0.24
15852 H 38.02273219603806 69.98501930484937 100.4700296687333 H 0.0 **** 0.06
15853 H 36.510187005133744 69.62830107833446 101.33902573966583 H 0.0 **** 0.06
15854 H 37.751288912149775 70.6582920303693 102.09441359286382 H 0.0 **** 0.06
15855 H 38.04447076635506 68.91380764756352 101.89177929124662 H 0.0 **** 0.06
15856 C 107.52506833974218 56.11707727575805 102.29544237343305 C 0.0 **** -0.24
15857 H 107.92567874876372 55.472301282609976 101.51369744032752 H 0.0 **** 0.06
15858 H 107.01842545247516 56.967586067076724 101.83963240287798 H 0.0 **** 0.06
15859 H 108.34035223985916 56.47398340393812 102.92411883776111 H 0.0 **** 0.06
15860 H 106.81769679657148 55.55372335932492 102.9033435024246 H 0.0 **** 0.06
15861 C 95.53642162956848 53.28144468055775 63.300475006473114 C 0.0 **** -0.24
15862 H 94.64690147836723 52.82530214940659 63.735894233848704 H 0.0 **** 0.06
15863 H 96.41347078353124 52.98924299168624 63.876979866137695 H 0.0 **** 0.06
15864 H 95.43295457487037 54.366211952631346 63.3186265665557 H 0.0 **** 0.06
15865 H 95.64938379079578 52.94487827504533 62.2700471566798 H 0.0 **** 0.06
15866 C 113.6684808137035 39.649536194084476 58.31643298100224 C 0.0 **** -0.24
15867 H 114.62957836670762 39.901391666723484 58.76542108353206 H 0.0 **** 0.06
15868 H 113.01729392641835 39.21486293491395 59.0748317968343 H 0.0 **** 0.06
15869 H 113.82160070224595 38.92980903275985 57.51274831941282 H 0.0 **** 0.06
15870 H 113.20835260148831 40.55197178829445 57.91486735875043 H 0.0 **** 0.06
15871 C 47.09162545357751 59.61543253574001 53.53938065233826 C 0.0 **** -0.24
15872 H 46.121132692483 60.0647410449522 53.75310174499521 H 0.0 **** 0.06
15873 H 47.57082160443153 60.15715734662018 52.723512844249406 H 0.0 **** 0.06
15874 H 46.952597608594004 58.57261994415376 53.25220790062599 H 0.0 **** 0.06
15875 H 47.719798250029214 59.66693757026286 54.429243671559405 H 0.0 **** 0.06
15876 C 109.88449335901475 72.58639818459531 39.27525434091871 C 0.0 **** -0.24
15877 H 109.8185846208365 71.51481479760574 39.4628843838118 H 0.0 **** 0.06
15878 H 110.24387011601218 73.09017314327477 40.172749255827796 H 0.0 **** 0.06
15879 H 108.89779728334052 72.96976920601824 39.01297862574279 H 0.0 **** 0.06
15880 H 110.57622239177778 72.7695643832291 38.453471515938986 H 0.0 **** 0.06
15881 C 68.65096065631457 74.24517518095143 20.85653375681268 C 0.0 **** -0.24
15882 H 69.04734372597434 73.61389805580131 20.061376157831575 H 0.0 **** 0.06
15883 H 69.12384566036161 73.978004320644 21.801792183652964 H 0.0 **** 0.06
15884 H 67.57382809988042 74.09753543327918 20.93305115601784 H 0.0 **** 0.06
15885 H 68.8588462074024 75.29079554218902 20.627728886227317 H 0.0 **** 0.06
15886 C 98.3420139863697 100.8881692801387 1.1392219655565015 C 0.0 **** -0.24
15887 H 98.91653548140488 100.64831964067372 2.0329479110654916 H 0.0 **** 0.06
15888 H 97.63632716250245 100.0827518916621 0.9331880787318454 H 0.0 **** 0.06
15889 H 99.01851994783101 101.00411867341552 0.29189532041264954 H 0.0 **** 0.06
15890 H 97.79501608368085 101.81818176512269 1.2975257893652383 H 0.0 **** 0.06
15891 C 31.645917648198605 75.70969613283572 111.62484638088281 C 0.0 **** -0.24
15892 H 30.97696340335486 75.53670617491204 112.46798614989143 H 0.0 **** 0.06
15893 H 31.100842031912634 75.56114896625866 110.69193247362833 H 0.0 **** 0.06
15894 H 32.481926227482035 75.0121180901001 111.67401431427427 H 0.0 **** 0.06
15895 H 32.02359043563936 76.73185289760076 111.66624493453851 H 0.0 **** 0.06
15896 C 70.1604750626795 64.07629928114301 1.84664191506144 C 0.0 **** -0.24
15897 H 69.609250850014 63.47847974345734 2.5736231582497453 H 0.0 **** 0.06
15898 H 70.12910601203654 63.583921727576694 0.8746289007333132 H 0.0 **** 0.06
15899 H 71.19620532592003 64.17743510956356 2.170785906789149 H 0.0 **** 0.06
15900 H 69.70629125916767 65.06370548059311 1.7695706334410772 H 0.0 **** 0.06
15901 C 6.928323706599372 74.24739990286022 41.70024265462021 C 0.0 **** -0.24
15902 H 7.577488661186635 73.38317873417304 41.83727016524152 H 0.0 **** 0.06
15903 H 5.88745471417198 73.92324337538324 41.69659922366702 H 0.0 **** 0.06
15904 H 7.162236729045915 74.73042089001649 40.751906561023745 H 0.0 **** 0.06
15905 H 7.08728041786101 74.95345638864993 42.51626781334275 H 0.0 **** 0.06
15906 C 53.198380855028375 86.37612499628744 116.74212127933701 C 0.0 **** -0.24
15907 H 52.862343421495694 87.2894527967434 117.23345635896337 H 0.0 **** 0.06
15908 H 53.06937773825982 86.47532060235216 115.6645919939519 H 0.0 **** 0.06
15909 H 52.61132932408398 85.53179203587177 117.10305105030484 H 0.0 **** 0.06
15910 H 54.25192226492308 86.209377009902 116.96829072610224 H 0.0 **** 0.06
15911 C 68.12817630394096 61.06446001348911 37.775362093881846 C 0.0 **** -0.24
15912 H 68.23062258470549 60.21210047050312 37.10452912510624 H 0.0 **** 0.06
15913 H 67.30293146306809 61.692961565889476 37.43878700932897 H 0.0 **** 0.06
15914 H 69.0514575003867 61.643536934927 37.770812478039616 H 0.0 **** 0.06
15915 H 67.92654174105706 60.709195506220595 38.78602702867479 H 0.0 **** 0.06
15916 C 101.09751334100127 112.73857003978586 21.56411539070416 C 0.0 **** -0.24
15917 H 102.11313127704881 113.09578226166758 21.73102115511236 H 0.0 **** 0.06
15918 H 100.62496731194545 113.33810556315174 20.7862623491568 H 0.0 **** 0.06
15919 H 100.52553397578902 112.82349733246079 22.4874473229317 H 0.0 **** 0.06
15920 H 101.12735789759773 111.69451334018817 21.25052657669829 H 0.0 **** 0.06
15921 C 100.04562071790212 25.211047959041082 39.72252516851151 C 0.0 **** -0.24
15922 H 100.16473142508028 25.795815204140183 40.634824950841136 H 0.0 **** 0.06
15923 H 100.19386611543885 25.854815861175894 38.85599639912931 H 0.0 **** 0.06
15924 H 99.04271243502441 24.785610436059528 39.69345920614157 H 0.0 **** 0.06
15925 H 100.78259017676535 24.406930137226368 39.708974680819466 H 0.0 **** 0.06
15926 C 17.4166546849128 66.85300699180385 46.399649011703616 C 0.0 **** -0.24
15927 H 16.552818085091246 66.18934985640135 46.36797133958726 H 0.0 **** 0.06
15928 H 17.153630260176982 67.81273244404554 45.95531225918114 H 0.0 **** 0.06
15929 H 18.23882219928535 66.40621865336743 45.84114414184563 H 0.0 **** 0.06
15930 H 17.720838607178592 67.0033638546521 47.43543659322441 H 0.0 **** 0.06
15931 C 91.82068004298708 9.097892425504 45.65615469434812 C 0.0 **** -0.24
15932 H 91.92521388073729 8.055776172584778 45.35467112698302 H 0.0 **** 0.06
15933 H 92.12781345076328 9.74538361391647 44.835455517322174 H 0.0 **** 0.06
15934 H 92.4502630456754 9.28856649509288 46.525661822650164 H 0.0 **** 0.06
15935 H 90.7800136941369 9.300181210212667 45.91020741210468 H 0.0 **** 0.06
15936 C 32.11312294036392 104.49389490735928 72.93143145801434 C 0.0 **** -0.24
15937 H 32.82552341884028 104.51444693329546 72.10594298975266 H 0.0 **** 0.06
15938 H 31.299910066678564 103.80786399254518 72.69241591850647 H 0.0 **** 0.06
15939 H 31.71034065223094 105.49409339957504 73.088352841556 H 0.0 **** 0.06
15940 H 32.61709192871001 104.15853619708267 73.8378092776172 H 0.0 **** 0.06
15941 C 35.75326759033919 42.441121681416924 94.01454485239418 C 0.0 **** -0.24
15942 H 36.762001049666026 42.7566216013406 94.28251802218145 H 0.0 **** 0.06
15943 H 35.10002641890577 42.54310797182105 94.88114899228091 H 0.0 **** 0.06
15944 H 35.77178144158722 41.399930588326534 93.6940620075172 H 0.0 **** 0.06
15945 H 35.381416599658394 43.06556556701458 93.20240224117072 H 0.0 **** 0.06
15946 C 56.92875930470262 3.462341103555673 91.7651940389265 C 0.0 **** -0.24
15947 H 56.9582759597526 2.934185470056775 90.81220487127177 H 0.0 **** 0.06
15948 H 55.933702298675826 3.3689326479637884 92.20126448481204 H 0.0 **** 0.06
15949 H 57.156768327744714 4.515873351150844 91.60351333062079 H 0.0 **** 0.06
15950 H 57.66508143783187 3.0302855359755654 92.44191450710045 H 0.0 **** 0.06
15951 C 34.316888632406645 81.45515237573554 105.45931010822454 C 0.0 **** -0.24
15952 H 35.28874985797954 81.14777577172924 105.84607537896034 H 0.0 **** 0.06
15953 H 34.25047204433915 82.54224483900495 105.46568735248036 H 0.0 **** 0.06
15954 H 33.52886254257393 81.038180277924 106.08750927800955 H 0.0 **** 0.06
15955 H 34.199770110845606 81.08901864850199 104.4395237141052 H 0.0 **** 0.06
15956 C 108.93093874731784 60.45137116002792 19.14100676566028 C 0.0 **** -0.24
15957 H 109.38897764957333 61.41015626684819 18.89810669095553 H 0.0 **** 0.06
15958 H 109.4633940629383 59.65285255034402 18.62301795252955 H 0.0 **** 0.06
15959 H 107.88775902417709 60.456795955516725 18.824001025249856 H 0.0 **** 0.06
15960 H 108.98392103353714 60.28536533804822 20.21649030687942 H 0.0 **** 0.06
15961 C 108.07474415934246 47.866581706461346 62.591159471181555 C 0.0 **** -0.24
15962 H 108.24843218585659 48.53647487515113 63.433460245396816 H 0.0 **** 0.06
15963 H 108.39200626106344 46.85851867482947 62.85659421245566 H 0.0 **** 0.06
15964 H 108.64596272267822 48.2125649202828 61.72919950442653 H 0.0 **** 0.06
15965 H 107.01294688826013 47.86003881103247 62.344885820179144 H 0.0 **** 0.06
15966 C 47.54238981709287 108.74573327681497 78.95369050167994 C 0.0 **** -0.24
15967 H 47.17061723577771 108.02621043668336 79.68381518162604 H 0.0 **** 0.06
15968 H 46.93942108061475 109.65297406146443 78.9985776917556 H 0.0 **** 0.06
15969 H 47.477213967917265 108.31515925953371 77.95421407965134 H 0.0 **** 0.06
15970 H 48.58048256580585 108.98736804932452 79.17773053752936 H 0.0 **** 0.06
15971 C 43.543618124676826 61.427286380113486 31.638966407847334 C 0.0 **** -0.24
15972 H 43.24471443535489 62.47318446712518 31.706588334114286 H 0.0 **** 0.06
15973 H 42.93374427260119 60.83036449619351 32.31699967241008 H 0.0 **** 0.06
15974 H 44.5943793600995 61.331558887301895 31.91648967722685 H 0.0 **** 0.06
15975 H 43.403750818881996 61.07430651231721 30.616991680530703 H 0.0 **** 0.06
15976 C 17.008490657681854 107.67461556540113 113.31789910544398 C 0.0 **** -0.24
15977 H 16.865585354952916 107.03849427065899 112.44467364278131 H 0.0 **** 0.06
15978 H 16.05311565738801 108.11219129199853 113.60947434964822 H 0.0 **** 0.06
15979 H 17.71352630245124 108.46954712705158 113.07681103056791 H 0.0 **** 0.06
15980 H 17.401956916003993 107.0777204053785 114.14146908436686 H 0.0 **** 0.06
15981 C 11.046463917291732 86.39175213930366 22.911263040473912 C 0.0 **** -0.24
15982 H 10.607187526921564 87.35371283834374 23.17504859875163 H 0.0 **** 0.06
15983 H 10.579689318545945 85.60437461544541 23.504199926164077 H 0.0 **** 0.06
15984 H 12.11695616478272 86.41432818981622 23.114180778421314 H 0.0 **** 0.06
15985 H 10.88192181916844 86.19677677639305 21.851152895862526 H 0.0 **** 0.06
15986 C 54.884962199309314 45.097411199384794 114.67567881114411 C 0.0 **** -0.24
15987 H 55.530094303502494 45.360032863642914 113.83754495090454 H 0.0 **** 0.06
15988 H 55.202436336425535 44.14136522265744 115.09250761830418 H 0.0 **** 0.06
15989 H 53.85394788231352 45.01835702365446 114.32834902003506 H 0.0 **** 0.06
15990 H 54.952352704881264 45.86906195794745 115.44224489652339 H 0.0 **** 0.06
15991 C 74.76893056527956 39.73219776372915 65.21052547177132 C 0.0 **** -0.24
15992 H 74.01704387648911 40.51757461090759 65.1241792634641 H 0.0 **** 0.06
15993 H 75.28769613406402 39.83011875284055 66.16475280148401 H 0.0 **** 0.06
15994 H 75.48625011552178 39.82606636703966 64.39563328680939 H 0.0 **** 0.06
15995 H 74.28339718295592 38.7580648560411 65.15740915553624 H 0.0 **** 0.06
15996 C 65.89963597532778 94.39283727493074 9.107275603079813 C 0.0 **** -0.24
15997 H 65.15582912774684 93.92469937769391 9.751877989823669 H 0.0 **** 0.06
15998 H 66.88956919221135 94.01040207577054 9.358338497287718 H 0.0 **** 0.06
15999 H 65.87937313914233 95.47338476608749 9.2534829068602 H 0.0 **** 0.06
16000 H 65.6747650713369 94.16280281213454 8.06640860044186 H 0.0 **** 0.06
16001 C 79.597333768655 84.61639427046802 12.26630209237672 C 0.0 **** -0.24
16002 H 80.57537083421508 84.90139513486778 11.879096787438954 H 0.0 **** 0.06
16003 H 79.21119823416504 85.41612049725376 12.899541673098014 H 0.0 **** 0.06
16004 H 79.69113956036037 83.70185450082138 12.85154684864392 H 0.0 **** 0.06
16005 H 78.91297693202705 84.44798113607476 11.434853539271188 H 0.0 **** 0.06
16006 C 52.749493229969914 57.801431420835456 78.14732532864383 C 0.0 **** -0.24
16007 H 52.875207039537145 58.76407270738639 77.65356156804484 H 0.0 **** 0.06
16008 H 51.754567502950295 57.40950724506325 77.93119498638276 H 0.0 **** 0.06
16009 H 52.86409555961774 57.926632039185506 79.223976650927 H 0.0 **** 0.06
16010 H 53.502546299750804 57.10363260050826 77.78076583591297 H 0.0 **** 0.06
16011 C 46.555676693025205 11.77721711890987 23.367947730164303 C 0.0 **** -0.24
16012 H 45.756064809427414 12.51512247239378 23.300660970005154 H 0.0 **** 0.06
16013 H 46.425845047357626 11.029408398849565 22.58495291002947 H 0.0 **** 0.06
16014 H 46.52107035672171 11.292630751246804 24.34354416417702 H 0.0 **** 0.06
16015 H 47.51806483948518 12.272698875074063 23.241512665593035 H 0.0 **** 0.06
16016 C 25.389281161805627 68.02304006152099 61.43314400289913 C 0.0 **** -0.24
16017 H 25.6545247704166 67.34670503390245 62.245115470675984 H 0.0 **** 0.06
16018 H 26.291968237302086 68.49351973266491 61.04291469901193 H 0.0 **** 0.06
16019 H 24.71139483552173 68.79124075007027 61.806385006060395 H 0.0 **** 0.06
16020 H 24.89892366624578 67.46207376907427 60.63814321305716 H 0.0 **** 0.06
16021 C 55.583200130623226 47.774828708900884 108.19059118177239 C 0.0 **** -0.24
16022 H 56.0098199876287 46.979154729709364 107.57871499944662 H 0.0 **** 0.06
16023 H 56.25753291054309 48.63197890908691 108.19152857125735 H 0.0 **** 0.06
16024 H 55.44982027815064 47.415840795696624 109.21144939901177 H 0.0 **** 0.06
16025 H 54.6185413393342 48.07153300548879 107.77974583261843 H 0.0 **** 0.06
16026 C 61.88799027759659 87.4256441247071 58.98976129251105 C 0.0 **** -0.24
16027 H 62.02905719432972 86.76175734533766 59.84337098299153 H 0.0 **** 0.06
16028 H 61.77812729916989 86.831171461102 58.082710384537336 H 0.0 **** 0.06
16029 H 62.7534874269458 88.08158774316797 58.89360180168222 H 0.0 **** 0.06
16030 H 60.99137222035491 88.02653610211144 59.14194492909087 H 0.0 **** 0.06
16031 C 89.98925886165989 2.8423805050118744 58.06068216111504 C 0.0 **** -0.24
16032 H 90.19909895376438 3.899912418212409 58.221216761638175 H 0.0 **** 0.06
16033 H 90.34812345285562 2.268075867676089 58.91479945713411 H 0.0 **** 0.06
16034 H 90.49511321193054 2.5053740210058777 57.15595901862247 H 0.0 **** 0.06
16035 H 88.91395618662955 2.699267559005193 57.95164162443109 H 0.0 **** 0.06
16036 C 111.50976898455616 36.35628680239557 76.74434520091023 C 0.0 **** -0.24
16037 H 110.88965499386056 37.23263008739838 76.5542897304507 H 0.0 **** 0.06
16038 H 111.02389550573045 35.47175206953017 76.33117538475048 H 0.0 **** 0.06
16039 H 111.64040910538492 36.23035781136167 77.81929544770716 H 0.0 **** 0.06
16040 H 112.48296558019888 36.49066246857541 76.27206399384312 H 0.0 **** 0.06
16041 C 25.086900993187072 22.388833628832003 53.834603123153485 C 0.0 **** -0.24
16042 H 25.604371599858986 21.487698175491346 53.50554836938666 H 0.0 **** 0.06
16043 H 24.06193168851547 22.13865296451152 54.110250696758534 H 0.0 **** 0.06
16044 H 25.07727392214167 23.118281063767682 53.02555637201689 H 0.0 **** 0.06
16045 H 25.604010841332645 22.80932687234818 54.69738573302769 H 0.0 **** 0.06
16046 C 69.1350916956244 22.179505828161126 41.36702225514699 C 0.0 **** -0.24
16047 H 69.81109170108732 22.227404775844377 40.51296623687858 H 0.0 **** 0.06
16048 H 69.29942422551395 23.045602842775168 42.00858424175243 H 0.0 **** 0.06
16049 H 69.32755403046471 21.267264647236516 41.932184420921374 H 0.0 **** 0.06
16050 H 68.10332581643078 22.178635321017197 41.01475331110453 H 0.0 **** 0.06
16051 C 81.19391552366736 103.38291850122093 17.39718677152254 C 0.0 **** -0.24
16052 H 81.90491225374791 103.71019396462884 16.63790919008656 H 0.0 **** 0.06
16053 H 80.6604653468572 104.24666998117851 17.792395805966834 H 0.0 **** 0.06
16054 H 81.72980326567728 102.88374364666342 18.205329602837878 H 0.0 **** 0.06
16055 H 80.48157169986573 102.68799401008448 16.951276178785804 H 0.0 **** 0.06
16056 C 65.56764228434824 65.00281235040501 110.80297289370759 C 0.0 **** -0.24
16057 H 65.43055292964755 64.74580192108971 109.75324910343761 H 0.0 **** 0.06
16058 H 65.07758584569365 65.95406863634241 111.01128551970282 H 0.0 **** 0.06
16059 H 66.632627286441 65.08739182444339 111.0203625262443 H 0.0 **** 0.06
16060 H 65.12956497416062 64.22409814409207 111.4287064807101 H 0.0 **** 0.06
16061 C 69.76355157461433 18.047030634061713 91.03610332760766 C 0.0 **** -0.24
16062 H 70.1459521309541 18.647917126490483 91.86151488060679 H 0.0 **** 0.06
16063 H 69.08595100164581 18.650969430018165 90.43172147725966 H 0.0 **** 0.06
16064 H 69.22763816369644 17.184335651560616 91.43219948021633 H 0.0 **** 0.06
16065 H 70.59534571096492 17.706378505695255 90.41957060041238 H 0.0 **** 0.06
16066 C 15.52952163501179 40.133575129963454 76.03394487068957 C 0.0 **** -0.24
16067 H 14.469130351573266 40.01423769511056 75.8086918045037 H 0.0 **** 0.06
16068 H 15.67799378963301 40.09097815320752 77.113112375278 H 0.0 **** 0.06
16069 H 15.874709113481025 41.09555653193792 75.65707451543406 H 0.0 **** 0.06
16070 H 16.094017612243725 39.33181060053155 75.55712945689655 H 0.0 **** 0.06
16071 C 14.849638686687342 59.87934202422204 89.42410504939127 C 0.0 **** -0.24
16072 H 13.928232207250232 59.36900819802898 89.14092394307153 H 0.0 **** 0.06
16073 H 14.660859291156271 60.94888147420639 89.50910853836595 H 0.0 **** 0.06
16074 H 15.60975560575858 59.703146985522636 88.6625943279576 H 0.0 **** 0.06
16075 H 15.19856036391758 59.49297686937416 90.38168825153235 H 0.0 **** 0.06
16076 C 6.085314784560907 101.67151301673036 2.9997681158695 C 0.0 **** -0.24
16077 H 5.088008677881206 101.96905456310049 3.3251948790796746 H 0.0 **** 0.06
16078 H 6.299332134550767 102.12310252495556 2.0308597200578333 H 0.0 **** 0.06
16079 H 6.130458035422706 100.58628554538384 2.9134412038250304 H 0.0 **** 0.06
16080 H 6.821416656669598 102.00977081878924 3.729186151590028 H 0.0 **** 0.06
16081 C 113.88132472572022 45.01528540256018 113.5436749343855 C 0.0 **** -0.24
16082 H 114.84069723327455 44.68965972730007 113.94451183179427 H 0.0 **** 0.06
16083 H 113.97739309363206 45.19859258700902 112.47338463517946 H 0.0 **** 0.06
16084 H 113.57111165568487 45.93322900703376 114.04318706706945 H 0.0 **** 0.06
16085 H 113.13477126410396 44.23858385003419 113.71390618487928 H 0.0 **** 0.06
16086 C 1.5834928259810113 113.64131801520018 81.44992945884519 C 0.0 **** -0.24
16087 H 0.8470357953264056 114.08351719576046 82.12160940326976 H 0.0 **** 0.06
16088 H 1.0765086726455877 113.22682310000877 80.57870102393895 H 0.0 **** 0.06
16089 H 2.1203653326901417 112.84880772675149 81.97129528141042 H 0.0 **** 0.06
16090 H 2.2887262324949234 114.40901722786111 81.13007358507738 H 0.0 **** 0.06
16091 C 55.887336152727016 88.89107567995083 81.96008872547827 C 0.0 **** -0.24
16092 H 55.80240684081491 89.20445486288517 80.9191754186113 H 0.0 **** 0.06
16093 H 56.770826714555426 89.34674345424892 82.40563354974265 H 0.0 **** 0.06
16094 H 55.975248812783605 87.80510619792071 82.005494370968 H 0.0 **** 0.06
16095 H 54.999079903804784 89.20641357608744 82.50753901080566 H 0.0 **** 0.06
16096 C 15.934929891525144 9.141640215486092 28.492699000562602 C 0.0 **** -0.24
16097 H 16.26685758990095 8.974986642980667 29.5177026995472 H 0.0 **** 0.06
16098 H 16.70631140713658 8.801493379208779 27.80189610329795 H 0.0 **** 0.06
16099 H 15.750649526059988 10.20481035218205 28.339190179156382 H 0.0 **** 0.06
16100 H 15.015411390735153 8.582863097163795 28.314449438860386 H 0.0 **** 0.06
16101 C 42.79647344969493 0.7140209689768682 36.48264221900294 C 0.0 **** -0.24
16102 H 43.209965793495485 1.4199627646206068 35.76266916105644 H 0.0 **** 0.06
16103 H 41.78656443488555 0.43546824445374455 36.17981191790207 H 0.0 **** 0.06
16104 H 42.76464271827962 1.1769963085200743 37.46821084860838 H 0.0 **** 0.06
16105 H 43.423994333700534 -0.17669104750638098 36.51928415907949 H 0.0 **** 0.06
16106 C 102.14855833019726 49.535032478757955 49.3232968731858 C 0.0 **** -0.24
16107 H 103.10428509490328 49.20959184271291 48.9130656205854 H 0.0 **** 0.06
16108 H 101.3475798020298 48.92423433336256 48.907194758716685 H 0.0 **** 0.06
16109 H 101.97909631551474 50.58075812571744 49.06594208947729 H 0.0 **** 0.06
16110 H 102.16334019934459 49.42627955494717 50.4076608576965 H 0.0 **** 0.06
16111 C 12.294578434742817 70.08045513782236 78.56935080708828 C 0.0 **** -0.24
16112 H 12.697066151631674 69.07066935019051 78.48587448191853 H 0.0 **** 0.06
16113 H 12.793445356423575 70.7298826352866 77.8498303426783 H 0.0 **** 0.06
16114 H 12.463787370811872 70.45684309249344 79.57819143190662 H 0.0 **** 0.06
16115 H 11.224614115059751 70.06258043744907 78.36239475497015 H 0.0 **** 0.06
16116 C 35.44201904071923 14.769684654742974 48.57438657120555 C 0.0 **** -0.24
16117 H 35.95797347047289 15.710610666564065 48.769020353491065 H 0.0 **** 0.06
16118 H 35.859628740478996 13.989997913278756 49.210890028397145 H 0.0 **** 0.06
16119 H 35.57161448804723 14.493906837513379 47.52809428399906 H 0.0 **** 0.06
16120 H 34.38047761007499 14.886621942796978 48.790334188225 H 0.0 **** 0.06
16121 C 65.3849904441754 92.12632751742709 92.46908610017465 C 0.0 **** -0.24
16122 H 65.94846739484609 92.43000279300844 91.58639415906936 H 0.0 **** 0.06
16123 H 64.72632679483326 92.9386173186935 92.77656202830678 H 0.0 **** 0.06
16124 H 66.07677578349404 91.89224288315978 93.27736842162994 H 0.0 **** 0.06
16125 H 64.7894030677424 91.24361061613826 92.23266145338789 H 0.0 **** 0.06
16126 C 47.42256839319492 15.32873049006055 104.98281562184113 C 0.0 **** -0.24
16127 H 48.26478409015016 15.662477934574227 105.58866569322694 H 0.0 **** 0.06
16128 H 47.619650482911254 14.325050415887489 104.60727884068336 H 0.0 **** 0.06
16129 H 47.28663376434412 16.011171897881553 104.14334762734748 H 0.0 **** 0.06
16130 H 46.51930713281217 15.319153847095947 105.59259700189841 H 0.0 **** 0.06
16131 C 34.707413579062965 59.09675807120166 50.19042467952801 C 0.0 **** -0.24
16132 H 35.13145027308253 59.87880567469023 49.56077526959152 H 0.0 **** 0.06
16133 H 34.53074928181713 58.20400149688476 49.590760294988684 H 0.0 **** 0.06
16134 H 33.76394221241953 59.44350047780179 50.61268109682686 H 0.0 **** 0.06
16135 H 35.402651753111414 58.86212842990042 50.99694487350574 H 0.0 **** 0.06
16136 C 71.59825303348663 53.118708685001764 78.29065521568958 C 0.0 **** -0.24
16137 H 71.82767073568314 53.71954287973864 79.17126115002748 H 0.0 **** 0.06
16138 H 70.61015594899231 53.38562011660116 77.91613633839773 H 0.0 **** 0.06
16139 H 71.61231489962503 52.06225158284542 78.55982738783945 H 0.0 **** 0.06
16140 H 72.3432103645566 53.306677821987535 77.518282850074 H 0.0 **** 0.06
16141 C 35.0337376031491 64.84914919205562 7.080163695910144 C 0.0 **** -0.24
16142 H 34.367103789258536 65.05884846457766 7.9165317524430066 H 0.0 **** 0.06
16143 H 35.61531923832626 63.95270234125593 7.2953097227935615 H 0.0 **** 0.06
16144 H 35.70753688831057 65.69342623102241 6.932144082844445 H 0.0 **** 0.06
16145 H 34.44499049670113 64.69161973136679 6.176669225559692 H 0.0 **** 0.06
16146 C 33.67771635215337 57.344412345527964 100.07357547842079 C 0.0 **** -0.24
16147 H 33.77389744811012 58.424874222962636 99.97332473282123 H 0.0 **** 0.06
16148 H 34.610146474124406 56.86666626738721 99.77265734254257 H 0.0 **** 0.06
16149 H 32.86660375796208 56.99185783485172 99.43547069411954 H 0.0 **** 0.06
16150 H 33.45891769117418 57.093453309084246 101.1112139708687 H 0.0 **** 0.06
16151 C 113.6870610382039 17.356676652614595 95.28318499517911 C 0.0 **** -0.24
16152 H 114.34295655721843 16.54121340780975 94.97862019042827 H 0.0 **** 0.06
16153 H 112.83213679043612 17.405571226530242 94.60842292985927 H 0.0 **** 0.06
16154 H 114.23577871631193 18.297316825026797 95.24461169762603 H 0.0 **** 0.06
16155 H 113.33802859362243 17.18046763820226 96.30110333917531 H 0.0 **** 0.06
16156 C 70.17324911918539 82.85023495899364 30.458408232641403 C 0.0 **** -0.24
16157 H 70.27825325126042 81.86472711628403 30.91272906837918 H 0.0 **** 0.06
16158 H 70.89134635751773 82.95215059540371 29.643428080192137 H 0.0 **** 0.06
16159 H 70.3639339643045 83.61687673507151 31.208734550661887 H 0.0 **** 0.06
16160 H 69.16166783244284 82.9651550941189 30.068870511378833 H 0.0 **** 0.06
16161 C 46.885508145331144 45.894791865358656 100.88043349413883 C 0.0 **** -0.24
16162 H 47.936838608206926 45.66412688705671 101.04787243844419 H 0.0 **** 0.06
16163 H 46.35855435444064 44.99016027282151 100.57543119054458 H 0.0 **** 0.06
16164 H 46.798266180765836 46.6483609045728 100.09708582766194 H 0.0 **** 0.06
16165 H 46.446649669859966 46.277589048086426 101.802717406835 H 0.0 **** 0.06
16166 C 52.934818934215315 10.662376631135857 54.11254627660651 C 0.0 **** -0.24
16167 H 53.93501769939737 11.040339505020711 53.90260719875761 H 0.0 **** 0.06
16168 H 52.4328419100496 10.423118556487339 53.17503381842391 H 0.0 **** 0.06
16169 H 52.36495443304899 11.421896119662676 54.64797467848649 H 0.0 **** 0.06
16170 H 53.00861597426449 9.764120826613095 54.725168055109805 H 0.0 **** 0.06
16171 C 53.85010662452695 113.90433332033271 61.508386265792815 C 0.0 **** -0.24
16172 H 54.390440361515516 114.28426663058127 62.37598130474243 H 0.0 **** 0.06
16173 H 52.85635749728534 114.3496445758813 61.47622337180575 H 0.0 **** 0.06
16174 H 53.76080567479482 112.81992465768936 61.58413749125469 H 0.0 **** 0.06
16175 H 54.39356914558011 114.16171279959988 60.60024577370259 H 0.0 **** 0.06
16176 C 50.49492786605208 100.86348699193962 86.09420396110687 C 0.0 **** -0.24
16177 H 50.23031916382092 101.73728679333436 85.49779288334847 H 0.0 **** 0.06
16178 H 50.7273620451748 100.02900218599058 85.43235545462383 H 0.0 **** 0.06
16179 H 49.65730257677535 100.59514480693986 86.73779800736293 H 0.0 **** 0.06
16180 H 51.36552014712879 101.09353429381991 86.70829375582088 H 0.0 **** 0.06
16181 C 82.00162339870658 51.72536069880877 16.78627220636784 C 0.0 **** -0.24
16182 H 82.27893653980192 52.768748619083254 16.642560949852168 H 0.0 **** 0.06
16183 H 82.88628153511195 51.148977437246316 17.0612329644907 H 0.0 **** 0.06
16184 H 81.58257576544759 51.329336984099314 15.861607280395617 H 0.0 **** 0.06
16185 H 81.2594563169043 51.653463888068956 17.581582120544 H 0.0 **** 0.06
16186 C 17.82974395140769 56.093394622374 55.5383645836396 C 0.0 **** -0.24
16187 H 16.88369433882836 55.72785674565055 55.13927794564829 H 0.0 **** 0.06
16188 H 18.418507404796085 55.25290825555233 55.90467890044503 H 0.0 **** 0.06
16189 H 17.63428758387564 56.785786981060475 56.357161012280464 H 0.0 **** 0.06
16190 H 18.380436757996748 56.60834766517163 54.750907418798036 H 0.0 **** 0.06
16191 C 75.3446111091157 67.8705068271658 104.4515823985341 C 0.0 **** -0.24
16192 H 76.13287788318323 68.60921694258738 104.3111518225798 H 0.0 **** 0.06
16193 H 74.4099289314112 68.25281545946041 104.04130407521271 H 0.0 **** 0.06
16194 H 75.21941277354969 67.67179345925305 105.51657601974111 H 0.0 **** 0.06
16195 H 75.6160312508554 66.94766141419498 103.93893201388434 H 0.0 **** 0.06
16196 C 59.82488938428392 2.357635420199074 62.967912431959 C 0.0 **** -0.24
16197 H 59.67549204242644 1.2907772879286767 62.79668969688931 H 0.0 **** 0.06
16198 H 60.88110456126199 2.599324523176392 62.846644637537686 H 0.0 **** 0.06
16199 H 59.50701146428713 2.611117091796018 63.97871932408035 H 0.0 **** 0.06
16200 H 59.236755043379674 2.9264641753501337 62.24811955985883 H 0.0 **** 0.06
16201 C 102.31491126605036 35.80754336110284 84.19934869840705 C 0.0 **** -0.24
16202 H 103.36697315944357 35.56451606830246 84.04440168380589 H 0.0 **** 0.06
16203 H 101.73399502252354 35.46799871905881 83.34220245552012 H 0.0 **** 0.06
16204 H 102.20467542552655 36.88666734791315 84.30833709764337 H 0.0 **** 0.06
16205 H 101.95765962637756 35.311612918285824 85.10197167551891 H 0.0 **** 0.06
16206 C 3.4162583263811257 58.70111982517304 64.2105275266644 C 0.0 **** -0.24
16207 H 3.252575596935799 59.47368926193519 64.96265482121828 H 0.0 **** 0.06
16208 H 3.032262550082123 57.74969116324442 64.57724765864799 H 0.0 **** 0.06
16209 H 4.484458420739486 58.61038464127074 64.01139265114267 H 0.0 **** 0.06
16210 H 2.8976897722347985 58.97347806787511 63.29155495984742 H 0.0 **** 0.06
16211 C 35.31612462908117 7.645176676866548 12.873580503701419 C 0.0 **** -0.24
16212 H 36.20503924963401 7.348628195760776 12.316117674591283 H 0.0 **** 0.06
16213 H 35.576753988695 8.433097121389618 13.579903127096827 H 0.0 **** 0.06
16214 H 34.92463913970499 6.784716971221762 13.416538321866653 H 0.0 **** 0.06
16215 H 34.55936380736961 8.012536757960067 12.180608945729162 H 0.0 **** 0.06
16216 C 36.65888220815691 49.65175062345949 21.026431868691 C 0.0 **** -0.24
16217 H 37.51114304505194 50.23728134824293 20.683131503985507 H 0.0 **** 0.06
16218 H 36.825788486678334 48.59895380711612 20.798677344134912 H 0.0 **** 0.06
16219 H 35.75662813112527 49.9935509471791 20.519740585167156 H 0.0 **** 0.06
16220 H 36.54112525019235 49.776990249101544 22.102119656260275 H 0.0 **** 0.06
16221 C 44.19742586691867 94.04231454379175 34.45271504183506 C 0.0 **** -0.24
16222 H 45.26633877307227 94.1031735744148 34.65971359785942 H 0.0 **** 0.06
16223 H 43.912289290907914 92.99832967216793 34.32342979272477 H 0.0 **** 0.06
16224 H 43.97160437592479 94.59639749466379 33.54212202096602 H 0.0 **** 0.06
16225 H 43.64186488634891 94.47100418484973 35.28597555034821 H 0.0 **** 0.06
16226 C 57.85704439600494 16.219134665079594 114.32354226495062 C 0.0 **** -0.24
16227 H 58.43235205389422 17.07535699308457 113.96932556013167 H 0.0 **** 0.06
16228 H 58.11649076997125 15.338691830337979 113.7344216971714 H 0.0 **** 0.06
16229 H 56.7930669068092 16.42760903113495 114.21645239063628 H 0.0 **** 0.06
16230 H 58.08788895471261 16.035293855287307 115.3721800631705 H 0.0 **** 0.06
16231 C 14.599098718589435 35.939632986187604 75.52703740367551 C 0.0 **** -0.24
16232 H 13.9386030035786 36.440847717792906 74.81893556521894 H 0.0 **** 0.06
16233 H 14.112275238383369 35.888293341805735 76.5017482314069 H 0.0 **** 0.06
16234 H 15.530380179287079 36.49999434400962 75.61467304285583 H 0.0 **** 0.06
16235 H 14.813041736698754 34.93143904147408 75.17345676166991 H 0.0 **** 0.06
16236 C 109.36846821748922 112.07585557042373 81.05035386473472 C 0.0 **** -0.24
16237 H 108.45111448541769 111.50366459215607 81.18773859179572 H 0.0 **** 0.06
16238 H 110.06281049934424 111.84755296208556 81.85973680958736 H 0.0 **** 0.06
16239 H 109.1361398045569 113.14105387044327 81.06030833484834 H 0.0 **** 0.06
16240 H 109.822677464157 111.81171790700287 80.09547575386992 H 0.0 **** 0.06
16241 C 5.1696894774272835 10.63404237280912 53.0300143883143 C 0.0 **** -0.24
16242 H 5.796158766536678 10.398283574553677 53.889900396018334 H 0.0 **** 0.06
16243 H 4.161624779640107 10.87118321500494 53.36989045723931 H 0.0 **** 0.06
16244 H 5.135079968188478 9.77525572311638 52.35988408819367 H 0.0 **** 0.06
16245 H 5.586425426232552 11.491592859608854 52.50121734707247 H 0.0 **** 0.06
16246 C 79.05348593716579 101.92406288358748 30.341846474870096 C 0.0 **** -0.24
16247 H 79.09325209704775 102.7709841982043 31.02687560256018 H 0.0 **** 0.06
16248 H 79.35435145458791 101.0172575848577 30.867467168333064 H 0.0 **** 0.06
16249 H 79.73075134288376 102.10152154006391 29.505934991125827 H 0.0 **** 0.06
16250 H 78.03605737901495 101.8073425532375 29.966883099201056 H 0.0 **** 0.06
16251 C 24.747480111074594 10.270887448802 4.859407930941828 C 0.0 **** -0.24
16252 H 25.2594194364481 9.839713505718407 3.9987842292419202 H 0.0 **** 0.06
16253 H 23.811775254918132 9.737565075321399 5.029536355494386 H 0.0 **** 0.06
16254 H 24.536961533038095 11.322817379790251 4.665956838373134 H 0.0 **** 0.06
16255 H 25.381657688653263 10.18324179313477 5.740916260890998 H 0.0 **** 0.06
16256 C 110.14146847172356 54.401367007706476 26.280255228573964 C 0.0 **** -0.24
16257 H 110.58593593343312 54.65771270647125 27.241205509018158 H 0.0 **** 0.06
16258 H 110.91295130156215 54.01252432612228 25.61532921672668 H 0.0 **** 0.06
16259 H 109.69428715483537 55.29083592101019 25.83753202959521 H 0.0 **** 0.06
16260 H 109.37269217031059 53.64227709462324 26.427671366232516 H 0.0 **** 0.06
16261 C 31.161106480299324 56.58444047704608 13.27800385623354 C 0.0 **** -0.24
16262 H 31.35908805536546 55.8487084805601 12.497816857056094 H 0.0 **** 0.06
16263 H 30.54550884056269 57.387554438560976 12.87176066880393 H 0.0 **** 0.06
16264 H 32.105184939304195 56.994132010635205 13.636876626568053 H 0.0 **** 0.06
16265 H 30.634887710739008 56.10519103754658 14.103770632216083 H 0.0 **** 0.06
16266 C 84.01048247290001 51.96544922699161 39.31880804922724 C 0.0 **** -0.24
16267 H 83.05246953612871 51.67625704205264 39.75133791140291 H 0.0 **** 0.06
16268 H 84.8088316841887 51.38977366463541 39.78757576622303 H 0.0 **** 0.06
16269 H 84.1798606911288 53.0277680681331 39.489628319718406 H 0.0 **** 0.06
16270 H 83.99984445760077 51.76655150885895 38.246456622130665 H 0.0 **** 0.06
16271 C 109.60160310730356 30.550355043315363 99.11031776559568 C 0.0 **** -0.24
16272 H 109.85553860712979 31.595280225581632 99.28798903512825 H 0.0 **** 0.06
16273 H 109.34330393796793 30.073782302216244 100.05609942158105 H 0.0 **** 0.06
16274 H 110.45712503855398 30.03938299115717 98.6665781374873 H 0.0 **** 0.06
16275 H 108.75229296394606 30.492948169120467 98.42934587880748 H 0.0 **** 0.06
16276 C 60.29676428958484 91.90480718033447 26.478823492182414 C 0.0 **** -0.24
16277 H 59.517574915586664 91.16029782587299 26.314943302553218 H 0.0 **** 0.06
16278 H 61.16532969881905 91.42721365676684 26.933929644270336 H 0.0 **** 0.06
16279 H 59.92101706548766 92.68391071054688 27.142725388171982 H 0.0 **** 0.06
16280 H 60.582941973258784 92.34720450656243 25.524470349036733 H 0.0 **** 0.06
16281 C 5.24442165860961 44.859254745745375 73.38914126975416 C 0.0 **** -0.24
16282 H 4.5430563181524235 44.025997324801835 73.33421621700126 H 0.0 **** 0.06
16283 H 6.259438927909628 44.47444725755611 73.48169955279144 H 0.0 **** 0.06
16284 H 5.008475066814924 45.47632615899235 74.25662215857301 H 0.0 **** 0.06
16285 H 5.16487550190601 45.460562173607855 72.48279706123918 H 0.0 **** 0.06
16286 C 85.16012512023207 94.8518683597307 109.4470474618245 C 0.0 **** -0.24
16287 H 84.25966462112117 94.98577082359228 110.04579526847135 H 0.0 **** 0.06
16288 H 86.01705150613748 94.71018210407291 110.10641776837929 H 0.0 **** 0.06
16289 H 85.31903601690428 95.73434706261307 108.82658740445726 H 0.0 **** 0.06
16290 H 85.04342646717737 93.97513050209935 108.80910766407808 H 0.0 **** 0.06
16291 C 4.436191075889241 41.995107834509604 14.581255156683909 C 0.0 **** -0.24
16292 H 4.230586629241486 41.35126851059734 15.436459638724159 H 0.0 **** 0.06
16293 H 4.2143771210285195 43.02915186128011 14.844641695942443 H 0.0 **** 0.06
16294 H 3.8130921896457153 41.69187079217497 13.741020112810844 H 0.0 **** 0.06
16295 H 5.486710803218159 41.90765618990326 14.305082306305678 H 0.0 **** 0.06
16296 C 31.90503740156811 98.1972454547965 44.08447823889271 C 0.0 **** -0.24
16297 H 32.51193360838903 97.56578498077099 44.73392390426259 H 0.0 **** 0.06
16298 H 31.000925293358875 98.50023755268106 44.61296388100678 H 0.0 **** 0.06
16299 H 31.63324093484215 97.64060629779101 43.1879993190241 H 0.0 **** 0.06
16300 H 32.47614904619962 99.08248424354582 43.80378486400514 H 0.0 **** 0.06
16301 C 86.94226823263972 5.607352079444041 17.110110084540864 C 0.0 **** -0.24
16302 H 87.76924846472451 5.1674298047458365 16.551906621238004 H 0.0 **** 0.06
16303 H 86.05354957138496 4.987323193789933 16.991104598365112 H 0.0 **** 0.06
16304 H 86.74099061486902 6.6094882259413055 16.73285768617754 H 0.0 **** 0.06
16305 H 87.20717942515569 5.6628007335017685 18.16676450722332 H 0.0 **** 0.06
16306 C 56.76542927317618 28.593649244453957 112.30578474058848 C 0.0 **** -0.24
16307 H 57.187018149377764 28.29597723922467 111.34534463209297 H 0.0 **** 0.06
16308 H 57.435905863291026 29.303096501508662 112.79234694996659 H 0.0 **** 0.06
16309 H 56.64587380019606 27.71360292752263 112.93784482018796 H 0.0 **** 0.06
16310 H 55.79348084253854 29.06087161481298 112.14634356812377 H 0.0 **** 0.06
16311 C 19.005154414683318 45.949251625628676 33.08036676307165 C 0.0 **** -0.24
16312 H 18.932596166885645 45.72114821436941 34.14328305364833 H 0.0 **** 0.06
16313 H 19.39485048992367 46.95963759049852 32.95045824047325 H 0.0 **** 0.06
16314 H 18.017346959010638 45.87865219646426 32.624851533368115 H 0.0 **** 0.06
16315 H 19.67701067537419 45.23689115429153 32.601104085016914 H 0.0 **** 0.06
16316 C 61.3716844742851 60.860665855693604 33.4416209837739 C 0.0 **** -0.24
16317 H 60.97209849572432 61.195760409384285 32.485173090479435 H 0.0 **** 0.06
16318 H 60.941307749771575 59.891586400098085 33.696202817141426 H 0.0 **** 0.06
16319 H 61.117665242553564 61.5856036577514 34.21543647973131 H 0.0 **** 0.06
16320 H 62.455657042382946 60.77042866490287 33.370891297091845 H 0.0 **** 0.06
16321 C 46.76926806526796 71.32091633163171 36.12411800276729 C 0.0 **** -0.24
16322 H 47.41355847854971 70.52977270068729 35.74152612782132 H 0.0 **** 0.06
16323 H 46.864302372606154 72.20446717945086 35.49249994101302 H 0.0 **** 0.06
16324 H 47.064792205552564 71.56860897947237 37.14378648705079 H 0.0 **** 0.06
16325 H 45.73383615069611 70.98001546441543 36.118795475271696 H 0.0 **** 0.06
16326 C 40.38370538758072 115.78808999778232 13.206973206633847 C 0.0 **** -0.24
16327 H 39.43122041210391 115.66928652217032 13.723624037149193 H 0.0 **** 0.06
16328 H 40.56684388754124 116.84632130184056 13.022363548884584 H 0.0 **** 0.06
16329 H 40.35037707379861 115.2541039948655 12.257296872577001 H 0.0 **** 0.06
16330 H 41.18543050713441 115.38234678652825 13.824522623704922 H 0.0 **** 0.06
16331 C 98.22638712328711 19.606961293263538 7.360483059535952 C 0.0 **** -0.24
16332 H 99.24492505787202 19.61366483048178 6.97061951627812 H 0.0 **** 0.06
16333 H 97.63807423959204 18.862374072709457 6.8229220230786485 H 0.0 **** 0.06
16334 H 97.77968389021939 20.59095593752417 7.224830503550983 H 0.0 **** 0.06
16335 H 98.24532366866958 19.35874143037529 8.421686750397054 H 0.0 **** 0.06
16336 C 38.07935047368767 87.00615019766497 54.80144713610579 C 0.0 **** -0.24
16337 H 37.581713341362786 87.2815906545255 55.73142983515091 H 0.0 **** 0.06
16338 H 37.396572617999084 87.15663759743944 53.96483913658493 H 0.0 **** 0.06
16339 H 38.37534055165315 85.95751591240261 54.845299577167836 H 0.0 **** 0.06
16340 H 38.96437928028854 87.62765167687283 54.66464839013802 H 0.0 **** 0.06
16341 C 69.65324290551675 114.65668668248304 62.47191501628356 C 0.0 **** -0.24
16342 H 70.56824805326926 114.07216784324294 62.37331328497291 H 0.0 **** 0.06
16343 H 68.79708081178103 113.98457022580675 62.52691396545984 H 0.0 **** 0.06
16344 H 69.54647573049928 115.31270405357128 61.607771528409614 H 0.0 **** 0.06
16345 H 69.70232866685774 115.25791991599112 63.380789187483714 H 0.0 **** 0.06
16346 C 5.965370953905349 85.69400170458385 53.858653348888225 C 0.0 **** -0.24
16347 H 5.776589596817402 85.09379922780244 52.968223346715064 H 0.0 **** 0.06
16348 H 5.047746858376101 86.20367049863881 54.15443498028887 H 0.0 **** 0.06
16349 H 6.737607473377835 86.43158687398355 53.64202279899902 H 0.0 **** 0.06
16350 H 6.298841938211922 85.04638991363854 54.668837261494275 H 0.0 **** 0.06
16351 C 77.72124486158418 83.8968121295022 108.69328320621014 C 0.0 **** -0.24
16352 H 76.78463239210407 83.34372678224454 108.61050183131223 H 0.0 **** 0.06
16353 H 78.55573171106028 83.23646278867787 108.45629493672635 H 0.0 **** 0.06
16354 H 77.83124411028587 84.27302839461169 109.71001641151841 H 0.0 **** 0.06
16355 H 77.71006665164407 84.73407624204299 107.99487797613824 H 0.0 **** 0.06
16356 C 100.694938565153 95.2838079626107 25.964986455762244 C 0.0 **** -0.24
16357 H 100.15240686488431 96.16452337101796 25.61926724704668 H 0.0 **** 0.06
16358 H 100.44948323271333 95.09353418393349 27.00950524333848 H 0.0 **** 0.06
16359 H 101.76684135548379 95.45743020081258 25.869014037731404 H 0.0 **** 0.06
16360 H 100.41086858336263 94.42238247540783 25.360739546896752 H 0.0 **** 0.06
16361 C 64.88110805377809 36.2127970257573 85.21814554072083 C 0.0 **** -0.24
16362 H 65.20574399342865 35.182130482133225 85.07315939822902 H 0.0 **** 0.06
16363 H 64.38492193481534 36.30416208312772 86.1847358210454 H 0.0 **** 0.06
16364 H 64.18605337024019 36.48957151079104 84.42573225914046 H 0.0 **** 0.06
16365 H 65.74740042845303 36.872697640044684 85.18995713507621 H 0.0 **** 0.06
16366 C 107.87389234115611 73.03668741340357 83.59513457469689 C 0.0 **** -0.24
16367 H 108.57566282516112 73.57325492040809 82.9560731510768 H 0.0 **** 0.06
16368 H 108.42169054334512 72.52844162525457 84.38895403750212 H 0.0 **** 0.06
16369 H 107.33016450924404 72.30197233573426 83.00024900900178 H 0.0 **** 0.06
16370 H 107.16895907756924 73.74282283614787 84.03323477825177 H 0.0 **** 0.06
16371 C 3.349042363071703 111.31915681451795 85.47999080464345 C 0.0 **** -0.24
16372 H 4.226662758285357 110.67988680559168 85.39008420337342 H 0.0 **** 0.06
16373 H 3.012140035681796 111.61488963968799 84.4861090604326 H 0.0 **** 0.06
16374 H 3.6046686203333707 112.20716241164786 86.05725000527349 H 0.0 **** 0.06
16375 H 2.5531046137589186 110.77379471096026 85.98670987591493 H 0.0 **** 0.06
16376 C 109.62532384693704 9.627437413398695 34.597949742778 C 0.0 **** -0.24
16377 H 108.99583206577428 10.273915683522944 35.20932597847842 H 0.0 **** 0.06
16378 H 109.95851401177886 10.174290450009565 33.715710515851896 H 0.0 **** 0.06
16379 H 109.05441065912142 8.751591405005339 34.28919598528037 H 0.0 **** 0.06
16380 H 110.49286893108156 9.310895755359986 35.17758921032478 H 0.0 **** 0.06
16381 C 31.719612023705395 38.603274712831364 14.315881644108345 C 0.0 **** -0.24
16382 H 32.72037025555136 38.76688014500962 13.916506919394863 H 0.0 **** 0.06
16383 H 31.19606703572026 39.5568026034249 14.384161695406988 H 0.0 **** 0.06
16384 H 31.794424752825705 38.156588474556486 15.307892475561488 H 0.0 **** 0.06
16385 H 31.170419564833082 37.93251463044717 13.655900233397603 H 0.0 **** 0.06
16386 C 64.38682678179964 77.33235735487557 81.97837653508111 C 0.0 **** -0.24
16387 H 63.61317603301135 78.09053390887897 82.09920612279757 H 0.0 **** 0.06
16388 H 63.95608947305664 76.44536721731589 81.51234766115945 H 0.0 **** 0.06
16389 H 64.7938433028744 77.06937053573122 82.95433012198933 H 0.0 **** 0.06
16390 H 65.18398234744302 77.7241510247741 81.34664582804527 H 0.0 **** 0.06
16391 C 99.97647745943078 28.31638371980563 21.855438469766227 C 0.0 **** -0.24
16392 H 100.18056360966466 28.441247228918257 20.792476167398206 H 0.0 **** 0.06
16393 H 99.53634658729689 29.232248220171698 22.25129205720134 H 0.0 **** 0.06
16394 H 100.90758545314475 28.1036850720061 22.381396830346205 H 0.0 **** 0.06
16395 H 99.28141418761658 27.488354358126628 21.9965888241191 H 0.0 **** 0.06
16396 C 86.13266635492505 105.02464451380203 66.16625167956121 C 0.0 **** -0.24
16397 H 85.88039395851456 104.23401542037223 66.87254567640761 H 0.0 **** 0.06
16398 H 85.22948843354828 105.34941101038297 65.64803413246139 H 0.0 **** 0.06
16399 H 86.85196208205883 104.64701253573361 65.43982846476845 H 0.0 **** 0.06
16400 H 86.56644555355689 105.86761300528846 66.70431366878847 H 0.0 **** 0.06
16401 C 80.18169984132874 22.289476281612906 29.935779822303893 C 0.0 **** -0.24
16402 H 79.78443747076912 22.82193709875844 29.071023144150345 H 0.0 **** 0.06
16403 H 80.43956560749632 21.27015829135928 29.647039296048234 H 0.0 **** 0.06
16404 H 79.42917112868275 22.26470610145816 30.724059564173402 H 0.0 **** 0.06
16405 H 81.07270727640739 22.801944713088005 30.299431937486283 H 0.0 **** 0.06
16406 C 85.704842686995 104.22439189628636 12.401206937158491 C 0.0 **** -0.24
16407 H 86.76732780295839 104.0325944159234 12.251080071608513 H 0.0 **** 0.06
16408 H 85.18816232823929 103.28265601598127 12.583102057299044 H 0.0 **** 0.06
16409 H 85.29244883705582 104.69988354536227 11.511456436797062 H 0.0 **** 0.06
16410 H 85.57240879859506 104.8837738274037 13.259688602496766 H 0.0 **** 0.06
16411 C 9.223869807589892 104.0424432820162 20.442012993658743 C 0.0 **** -0.24
16412 H 8.85571452193409 104.8177823321989 21.113611822416964 H 0.0 **** 0.06
16413 H 9.435385285913753 104.47788878948558 19.465380318984423 H 0.0 **** 0.06
16414 H 8.467763626471026 103.26370154747266 20.337735615231026 H 0.0 **** 0.06
16415 H 10.137103108203462 103.61001501404627 20.852107810476358 H 0.0 **** 0.06
16416 C 47.96182441189335 35.449280989521554 14.05858851661894 C 0.0 **** -0.24
16417 H 48.7574450421863 34.924790502920075 14.587674996764804 H 0.0 **** 0.06
16418 H 47.18828603474186 34.73699552872685 13.768195887303477 H 0.0 **** 0.06
16419 H 48.37067288706704 35.92571404584601 13.167621387788401 H 0.0 **** 0.06
16420 H 47.531360308824226 36.208503698611224 14.711588134282295 H 0.0 **** 0.06
16421 C 13.858670790306434 86.77678120628295 2.5882085088062574 C 0.0 **** -0.24
16422 H 13.78643771675857 87.63749686511107 3.2535437166946224 H 0.0 **** 0.06
16423 H 14.7841988458039 86.23773224449465 2.7919338977058246 H 0.0 **** 0.06
16424 H 13.85672035549635 87.11683871515123 1.5526617711875694 H 0.0 **** 0.06
16425 H 13.00816596593927 86.11574348937779 2.7556022368858546 H 0.0 **** 0.06
16426 C 64.71192190639047 59.63439831578194 55.706020689029124 C 0.0 **** -0.24
16427 H 64.20731820700647 59.12602643117157 56.527834608759214 H 0.0 **** 0.06
16428 H 64.58638645199326 60.71251900737974 55.81370393744357 H 0.0 **** 0.06
16429 H 64.27955750272378 59.30979963782028 54.759126960612285 H 0.0 **** 0.06
16430 H 65.77390361004407 59.38758651480123 55.724400482300744 H 0.0 **** 0.06
16431 C 99.75863289924595 34.72564317359257 27.448512484837636 C 0.0 **** -0.24
16432 H 99.64001366731193 33.75437704857682 27.927116145377056 H 0.0 **** 0.06
16433 H 99.8512763540063 35.49863615864586 28.211415494240242 H 0.0 **** 0.06
16434 H 98.88772346896053 34.93209692914443 26.82529530134019 H 0.0 **** 0.06
16435 H 100.65481303401162 34.71695637359651 26.82793236569833 H 0.0 **** 0.06
16436 C 109.02286393554192 46.72549613697683 93.64819002303787 C 0.0 **** -0.24
16437 H 109.97814640350171 46.94906416467552 94.12263146509699 H 0.0 **** 0.06
16438 H 108.33799203909243 46.312089046268795 94.38768644159055 H 0.0 **** 0.06
16439 H 109.17607866466581 46.00140571125763 92.84811486669449 H 0.0 **** 0.06
16440 H 108.6009313727549 47.64086775407981 93.23330006386843 H 0.0 **** 0.06
16441 C 29.819173798723455 73.50205315332954 23.12764898582091 C 0.0 **** -0.24
16442 H 29.434025261600596 74.35142122954085 22.563753233106667 H 0.0 **** 0.06
16443 H 30.180809765816548 73.84432958653682 24.097220143610002 H 0.0 **** 0.06
16444 H 30.63738423785378 73.04038752846188 22.575696592773028 H 0.0 **** 0.06
16445 H 29.022388365113102 72.77246134294333 23.274627784493873 H 0.0 **** 0.06
16446 C 28.100156639551642 84.71014014137859 88.49905001272148 C 0.0 **** -0.24
16447 H 29.103209574040136 84.35789390533188 88.73976222048736 H 0.0 **** 0.06
16448 H 27.429382884091808 83.85616058454147 88.4002952600126 H 0.0 **** 0.06
16449 H 28.125268871676155 85.26336486486016 87.55989306027999 H 0.0 **** 0.06
16450 H 27.743629648513206 85.36265478350458 89.29637688522394 H 0.0 **** 0.06
16451 C 42.885304703336146 97.03205376163956 58.655808535470264 C 0.0 **** -0.24
16452 H 43.71792723560077 97.13747894671812 59.3519811206038 H 0.0 **** 0.06
16453 H 42.261274651163546 97.92496746236415 58.69987228590494 H 0.0 **** 0.06
16454 H 42.2918328238535 96.15966582441851 58.927706178019825 H 0.0 **** 0.06
16455 H 43.27179052908713 96.90751095847654 57.64433547419896 H 0.0 **** 0.06
16456 C 105.96980937777701 39.23618783702983 28.591100792408128 C 0.0 **** -0.24
16457 H 106.70499521439535 40.03872429895239 28.641528169388565 H 0.0 **** 0.06
16458 H 105.57233711538507 39.17146044709909 27.577725151772285 H 0.0 **** 0.06
16459 H 105.15758172961503 39.44209749571425 29.288167087791464 H 0.0 **** 0.06
16460 H 106.44533086687008 38.29132501021701 28.856160366078242 H 0.0 **** 0.06
16461 C 82.50676485377844 103.82900070033006 0.6879315502692958 C 0.0 **** -0.24
16462 H 82.34898782000886 104.90758903832096 0.710372754054621 H 0.0 **** 0.06
16463 H 82.43844854210863 103.43132559199697 1.7005348089199508 H 0.0 **** 0.06
16464 H 83.49488733144693 103.6156592162323 0.27956360561948657 H 0.0 **** 0.06
16465 H 81.74552215558384 103.36357571980952 0.06213439001806087 H 0.0 **** 0.06
16466 C 3.6597533609514556 27.500885821802044 57.53523116986887 C 0.0 **** -0.24
16467 H 2.969926537909771 27.97293859946143 56.835178933801096 H 0.0 **** 0.06
16468 H 3.810574327730876 28.155514237676044 58.39422109945715 H 0.0 **** 0.06
16469 H 4.614836474475155 27.32397260622946 57.040623318485125 H 0.0 **** 0.06
16470 H 3.2432364537211527 26.551141578455045 57.87000343986413 H 0.0 **** 0.06
16471 C 85.9334993283183 84.03644786063734 17.972870840977635 C 0.0 **** -0.24
16472 H 85.43960345338809 83.39235298776444 17.245808543372362 H 0.0 **** 0.06
16473 H 85.39763384168168 84.98265390741261 18.04301512438869 H 0.0 **** 0.06
16474 H 86.95906463321893 84.22253640596185 17.65522516090431 H 0.0 **** 0.06
16475 H 85.93761116556084 83.54756512591612 18.946708963075878 H 0.0 **** 0.06
16476 C 50.38566297164891 1.8756222938156952 69.42333047238876 C 0.0 **** -0.24
16477 H 50.03018249992289 1.9412976890457685 68.3948586151163 H 0.0 **** 0.06
16478 H 50.28178379860253 2.84833588041721 69.90553939137675 H 0.0 **** 0.06
16479 H 51.43436308483126 1.578042537802844 69.42684335845729 H 0.0 **** 0.06
16480 H 49.796272128233966 1.1359469137618134 69.96443368267538 H 0.0 **** 0.06
16481 C 96.71185049645013 96.06656560500869 61.31023650664025 C 0.0 **** -0.24
16482 H 96.57518417515999 95.96747749455949 62.38590498745458 H 0.0 **** 0.06
16483 H 96.51391468156751 97.09656652212806 61.01158192814165 H 0.0 **** 0.06
16484 H 96.02179934969828 95.39947577561648 60.79365879170268 H 0.0 **** 0.06
16485 H 97.73667473955538 95.80282645125945 61.04839894053674 H 0.0 **** 0.06
16486 C 33.00636482329853 53.322400680983506 75.91740255356376 C 0.0 **** -0.24
16487 H 33.593105934060496 52.83832237079692 76.698293096686 H 0.0 **** 0.06
16488 H 33.05627574009601 54.40359634507717 76.04387691833651 H 0.0 **** 0.06
16489 H 31.969559179329025 52.995319747524626 75.98700865141831 H 0.0 **** 0.06
16490 H 33.40869284522135 53.05184961910484 74.94051754265197 H 0.0 **** 0.06
16491 C 19.15366251795342 67.95520668426695 79.3762926535739 C 0.0 **** -0.24
16492 H 19.34173331289776 67.18804417495363 78.62549441376194 H 0.0 **** 0.06
16493 H 20.08324537251707 68.1924398880542 79.89414409575392 H 0.0 **** 0.06
16494 H 18.420243056483372 67.58789113021226 80.09508485089643 H 0.0 **** 0.06
16495 H 18.768785107078543 68.85172855450753 78.89019504594097 H 0.0 **** 0.06
16496 C 97.25022130488844 109.5977074321813 18.689334545489512 C 0.0 **** -0.24
16497 H 97.43522891891956 110.40419845413673 17.979951456732884 H 0.0 **** 0.06
16498 H 97.76746970991712 109.81092157110143 19.624894160865132 H 0.0 **** 0.06
16499 H 97.61812656089978 108.65914612630826 18.27542835795461 H 0.0 **** 0.06
16500 H 96.17944858339354 109.51727698808797 18.876007185002972 H 0.0 **** 0.06
16501 C 8.289358698219296 109.6515538920496 12.140408798601186 C 0.0 **** -0.24
16502 H 8.206677099022269 109.68094991637112 13.22691816258154 H 0.0 **** 0.06
16503 H 8.58418703791369 108.65053540086002 11.825111777611369 H 0.0 **** 0.06
16504 H 9.040183156046226 110.37160611856675 11.813747755091129 H 0.0 **** 0.06
16505 H 7.326557465585786 109.90451001072286 11.696082374728576 H 0.0 **** 0.06
16506 C 73.49487543000612 65.05868095070457 114.0171248854138 C 0.0 **** -0.24
16507 H 73.5212643459374 65.94956400611551 113.38890197434705 H 0.0 **** 0.06
16508 H 74.30784460122561 64.39021542322837 113.73233377756463 H 0.0 **** 0.06
16509 H 72.54108084403632 64.54864688728065 113.88215783165003 H 0.0 **** 0.06
16510 H 73.60907868098025 65.34622099559704 115.06211593015374 H 0.0 **** 0.06
16511 C 43.8693086052364 101.7269468335482 20.244666035805608 C 0.0 **** -0.24
16512 H 43.93111932553531 101.05266178727794 21.098793117316063 H 0.0 **** 0.06
16513 H 42.98406507848925 102.35518341277117 20.340612018912907 H 0.0 **** 0.06
16514 H 43.80451734241216 101.14412061365562 19.32572878650737 H 0.0 **** 0.06
16515 H 44.76041490026192 102.35498907151242 20.213512168936205 H 0.0 **** 0.06
16516 C 29.885872892995394 107.39304431762986 2.2580681770445494 C 0.0 **** -0.24
16517 H 30.630473462287142 106.70464323344385 1.8567802783260277 H 0.0 **** 0.06
16518 H 29.469380579288895 107.99026284739222 1.4472006669827238 H 0.0 **** 0.06
16519 H 30.3570730223866 108.05012859565392 2.9891773802110038 H 0.0 **** 0.06
16520 H 29.089339450975643 106.82579125974218 2.7398029810402136 H 0.0 **** 0.06
16521 C 67.5665520813341 79.05472909133019 42.39894973089861 C 0.0 **** -0.24
16522 H 67.35583764445539 78.00384035339431 42.59734895831883 H 0.0 **** 0.06
16523 H 66.73875603962284 79.49222088996186 41.84081568964024 H 0.0 **** 0.06
16524 H 68.48338196535369 79.13668962866709 41.81361349892427 H 0.0 **** 0.06
16525 H 67.68921001068233 79.58447376178725 43.34293304904327 H 0.0 **** 0.06
16526 C 13.282966594060099 17.516899479153267 10.465327463848269 C 0.0 **** -0.24
16527 H 12.806234230318523 18.443829028694267 10.782013035050483 H 0.0 **** 0.06
16528 H 13.436182731445257 17.537583917934683 9.386746968759695 H 0.0 **** 0.06
16529 H 12.6445481891096 16.672439522781417 10.726347251117915 H 0.0 **** 0.06
16530 H 14.244812413859819 17.414228449948496 10.96752884967367 H 0.0 **** 0.06
16531 C 99.69188361084065 0.8884416379761433 1.9672635931818832 C 0.0 **** -0.24
16532 H 99.64915544615715 0.020346728430183703 1.3106941725594226 H 0.0 **** 0.06
16533 H 100.09796258865975 1.7387577197528117 1.4177342530864365 H 0.0 **** 0.06
16534 H 100.33388109948615 0.6674374562736602 2.8206816692394625 H 0.0 **** 0.06
16535 H 98.6893350471735 1.129229065201912 2.319564182376965 H 0.0 **** 0.06
16536 C 45.430090386389054 41.44097552865472 65.95126211257826 C 0.0 **** -0.24
16537 H 45.11358053304417 40.52933985912221 65.44603662662263 H 0.0 **** 0.06
16538 H 44.72639192459815 41.67473792551083 66.7517111892412 H 0.0 **** 0.06
16539 H 45.45276291644316 42.26379702897748 65.23604972671694 H 0.0 **** 0.06
16540 H 46.42441465993599 41.297906447178796 66.37164564312471 H 0.0 **** 0.06
16541 C 19.190800978920905 75.04175300880036 26.57489147026375 C 0.0 **** -0.24
16542 H 18.82182886544146 76.05726807828316 26.428632354082083 H 0.0 **** 0.06
16543 H 18.7999251582914 74.64495187036789 27.511713172170687 H 0.0 **** 0.06
16544 H 20.279861978261735 75.05239169896672 26.611207960638893 H 0.0 **** 0.06
16545 H 18.860446660843635 74.4131838726043 25.747722895864285 H 0.0 **** 0.06
16546 C 58.99791426185246 58.139574243341066 93.7444827322426 C 0.0 **** -0.24
16547 H 59.91301987898933 57.66970299787493 94.10448921829479 H 0.0 **** 0.06
16548 H 58.71380569121274 57.69828708550738 92.78895044476013 H 0.0 **** 0.06
16549 H 59.16603278273959 59.20921987959499 93.61605614897638 H 0.0 **** 0.06
16550 H 58.19971352217226 57.9823876188396 94.47000731227538 H 0.0 **** 0.06
16551 C 86.54178490090902 109.37246746244408 50.692982882286145 C 0.0 **** -0.24
16552 H 87.29264880256298 109.40666107346314 51.482508800724275 H 0.0 **** 0.06
16553 H 85.6019334135 109.7755703043133 51.069282238915974 H 0.0 **** 0.06
16554 H 86.39530217621211 108.34049185578448 50.37571475416004 H 0.0 **** 0.06
16555 H 86.88112802118204 109.96864801812582 49.84529071007975 H 0.0 **** 0.06
16556 C 28.099029710041435 41.575674396811394 65.79346750999898 C 0.0 **** -0.24
16557 H 28.997684015454325 41.00769173210523 65.55422483472753 H 0.0 **** 0.06
16558 H 27.297890415455868 41.292820068652645 65.11045415825578 H 0.0 **** 0.06
16559 H 28.305013725531268 42.64160886440932 65.69115758826683 H 0.0 **** 0.06
16560 H 27.79632925476838 41.360906287986296 66.81853730439306 H 0.0 **** 0.06
16561 C 74.98883644612064 112.19216435810903 40.74011508809916 C 0.0 **** -0.24
16562 H 73.93586635641975 112.18033516381074 41.02214885307447 H 0.0 **** 0.06
16563 H 75.07528078457074 112.10977029842797 39.65610188119636 H 0.0 **** 0.06
16564 H 75.49991235755692 111.35305607224635 41.21048682678784 H 0.0 **** 0.06
16565 H 75.44206531509258 113.12559936155813 41.07148430853434 H 0.0 **** 0.06
16566 C 36.65652633095175 36.85820949687658 28.658215955921776 C 0.0 **** -0.24
16567 H 37.540335014332356 37.289909184107216 28.189733843068097 H 0.0 **** 0.06
16568 H 35.83572165926654 37.57440794705502 28.616234355397296 H 0.0 **** 0.06
16569 H 36.87722144805156 36.61888372296683 29.69823507914583 H 0.0 **** 0.06
16570 H 36.37277432605168 35.94824330042361 28.12842698684517 H 0.0 **** 0.06
16571 C 53.46280071247982 107.02915519317048 41.88157755035462 C 0.0 **** -0.24
16572 H 54.37208604187502 107.12948991744804 42.47473615734111 H 0.0 **** 0.06
16573 H 53.17254428468152 108.00600149808577 41.4950643494509 H 0.0 **** 0.06
16574 H 52.66333728178356 106.6331096346282 42.507798842228 H 0.0 **** 0.06
16575 H 53.64548232053335 106.3481469866999 41.05042400866756 H 0.0 **** 0.06
16576 C 41.0760100954318 79.90019129800845 63.214289934452324 C 0.0 **** -0.24
16577 H 41.6209935775471 79.75955292350642 62.28160363396427 H 0.0 **** 0.06
16578 H 41.205261031341024 80.92579220763952 63.559947180135424 H 0.0 **** 0.06
16579 H 41.45968121459714 79.21122100051338 63.96642711425662 H 0.0 **** 0.06
16580 H 40.01593373574963 79.70431564614563 63.048658141891394 H 0.0 **** 0.06
16581 C 17.239646466895152 102.27987299165304 72.84627974162674 C 0.0 **** -0.24
16582 H 16.914481649427728 103.1379781995727 73.43407752040844 H 0.0 **** 0.06
16583 H 17.79104105249243 101.58986580853662 73.4851608540666 H 0.0 **** 0.06
16584 H 17.885295972889708 102.61897935657021 72.03545940230427 H 0.0 **** 0.06
16585 H 16.368696580010436 101.77381341527868 72.42951244558796 H 0.0 **** 0.06
16586 C 95.0515007256873 60.3032970771747 113.21589971305698 C 0.0 **** -0.24
16587 H 95.36408140305934 60.835927635074306 112.31746106588528 H 0.0 **** 0.06
16588 H 94.13444095310868 59.75172824170516 113.01109711429818 H 0.0 **** 0.06
16589 H 94.87505305335043 61.018728831103836 114.01942110038081 H 0.0 **** 0.06
16590 H 95.83614052396555 59.60687910087977 113.5151629370164 H 0.0 **** 0.06
16591 C 80.25347273771447 39.56622436649873 105.78722255570665 C 0.0 **** -0.24
16592 H 80.35140674419154 38.83655379033903 104.98443512952514 H 0.0 **** 0.06
16593 H 79.2645428765343 40.02157725496264 105.74645029324256 H 0.0 **** 0.06
16594 H 81.01464365682835 40.33820570979164 105.67097434638526 H 0.0 **** 0.06
16595 H 80.38519220902552 39.068432327311484 106.74857790330185 H 0.0 **** 0.06
16596 C 76.94226873919428 85.22958662767263 38.95072821378151 C 0.0 **** -0.24
16597 H 76.68020267738967 85.49069351262096 39.975770899785445 H 0.0 **** 0.06
16598 H 76.89565082157168 86.12084379999217 38.325640749374344 H 0.0 **** 0.06
16599 H 76.24058359843963 84.48518141758274 38.575160936514436 H 0.0 **** 0.06
16600 H 77.95189484751558 84.82074615601579 38.927159285784164 H 0.0 **** 0.06
16601 C 43.09102046402387 38.53430941512636 35.766004396652654 C 0.0 **** -0.24
16602 H 44.143036042061624 38.491895424063614 36.04520888919343 H 0.0 **** 0.06
16603 H 42.61625549977816 37.579526251774496 35.99365840547494 H 0.0 **** 0.06
16604 H 43.005496112972764 38.73719444799508 34.698271172029585 H 0.0 **** 0.06
16605 H 42.59813342680212 39.32830672375138 36.32762317066965 H 0.0 **** 0.06
16606 C 13.649077867868073 57.661695798615405 56.2867055526616 C 0.0 **** -0.24
16607 H 14.240669759740598 58.57339066848103 56.376697388987395 H 0.0 **** 0.06
16608 H 13.308872424408605 57.55023700815972 55.256503514490845 H 0.0 **** 0.06
16609 H 12.78626239290972 57.72255990117501 56.95010135530961 H 0.0 **** 0.06
16610 H 14.259852230971148 56.803486173587494 56.563054528616135 H 0.0 **** 0.06
16611 C 16.29342816691468 33.15960097115186 71.99219057325223 C 0.0 **** -0.24
16612 H 17.290184008288577 32.723204260457045 72.05949355671885 H 0.0 **** 0.06
16613 H 15.671148342606358 32.54359279087694 71.34268250258026 H 0.0 **** 0.06
16614 H 16.36461290102136 34.166207404404844 71.57997922511004 H 0.0 **** 0.06
16615 H 15.849029323363254 33.20424508731974 72.986332675053 H 0.0 **** 0.06
16616 C 110.25687499136703 10.04055188535844 67.75365483236592 C 0.0 **** -0.24
16617 H 109.71679355977955 9.535654164631865 68.55377246647265 H 0.0 **** 0.06
16618 H 110.00461576019975 11.10202979397107 67.75765828723937 H 0.0 **** 0.06
16619 H 109.97702773062304 9.604332233993631 66.79385016901 H 0.0 **** 0.06
16620 H 111.32899540228885 9.92071195340111 67.90768777441104 H 0.0 **** 0.06
16621 C 98.98497781894943 60.651434348221244 14.701157243997955 C 0.0 **** -0.24
16622 H 98.62505943892467 60.08136678721894 13.845277790058987 H 0.0 **** 0.06
16623 H 99.91367443164651 61.15722571007768 14.43619557017837 H 0.0 **** 0.06
16624 H 99.16464935883494 59.97652953362956 15.538713607813122 H 0.0 **** 0.06
16625 H 98.23625600308964 61.39146029690829 14.985543004523066 H 0.0 **** 0.06
16626 C 105.14866097743277 36.28835336872788 71.90691492589278 C 0.0 **** -0.24
16627 H 105.93049155352656 36.94536375768202 72.28694153051273 H 0.0 **** 0.06
16628 H 105.52368859691114 35.7405575175655 71.04156641828902 H 0.0 **** 0.06
16629 H 104.2845288457554 36.884682860935676 71.61322837698401 H 0.0 **** 0.06
16630 H 104.85614885761828 35.58364352571762 72.68480155957477 H 0.0 **** 0.06
16631 C 54.86095955474977 32.82942421619839 31.519337359901577 C 0.0 **** -0.24
16632 H 55.34712247991763 31.854280611130207 31.55103174957018 H 0.0 **** 0.06
16633 H 55.56711010870728 33.576097387097604 31.157517685066637 H 0.0 **** 0.06
16634 H 54.52607424164765 33.100500020190225 32.521492940561785 H 0.0 **** 0.06
16635 H 54.001833435890745 32.78616367712118 30.849692065846952 H 0.0 **** 0.06
16636 C 76.0850358487844 16.058236701024498 22.551802280995418 C 0.0 **** -0.24
16637 H 76.31345402163541 17.06745179520567 22.895389292373466 H 0.0 **** 0.06
16638 H 77.01317852356283 15.536290592733053 22.31557465317698 H 0.0 **** 0.06
16639 H 75.46056381249667 16.11124541595052 21.660929326964038 H 0.0 **** 0.06
16640 H 75.55480912608539 15.518376395449764 23.336481483205333 H 0.0 **** 0.06
16641 C 79.69805755966075 12.01760421972159 99.88516401579432 C 0.0 **** -0.24
16642 H 79.84337680993087 11.582911802929061 98.89529135265047 H 0.0 **** 0.06
16643 H 79.52624134684032 13.089557665795951 99.7887796203176 H 0.0 **** 0.06
16644 H 80.58724127770523 11.843728247298543 100.49147536302513 H 0.0 **** 0.06
16645 H 78.8364587954228 11.552048392317943 100.36285037576846 H 0.0 **** 0.06
16646 C 90.93274525127484 39.18210438863317 27.454341400121933 C 0.0 **** -0.24
16647 H 90.30537809478517 38.693294453552674 28.19955764405367 H 0.0 **** 0.06
16648 H 91.73956078174461 39.7185544590168 27.9534766256117 H 0.0 **** 0.06
16649 H 90.32993013275075 39.88567096524684 26.87824149819147 H 0.0 **** 0.06
16650 H 91.35337647884504 38.43145534794657 26.78499143737602 H 0.0 **** 0.06
16651 C 13.083625805661626 30.84864417956996 75.24242727104584 C 0.0 **** -0.24
16652 H 13.852308979777348 31.40274929133207 74.70510373504507 H 0.0 **** 0.06
16653 H 12.373839556638757 30.42830148649395 74.52924459804547 H 0.0 **** 0.06
16654 H 12.56057366058323 31.519614187048347 75.92274086144872 H 0.0 **** 0.06
16655 H 13.547425409310677 30.04282366806271 75.81178939376343 H 0.0 **** 0.06
16656 C 60.558403203359795 76.02017993732781 105.09910155741704 C 0.0 **** -0.24
16657 H 59.54885936364882 76.43081396436918 105.12823793464406 H 0.0 **** 0.06
16658 H 61.25743295279555 76.79689822829314 104.78977156680708 H 0.0 **** 0.06
16659 H 60.59288260056359 75.19442483207382 104.38905114226532 H 0.0 **** 0.06
16660 H 60.83144437264627 75.65925077412601 106.09060779183665 H 0.0 **** 0.06
16661 C 96.48993677326487 50.76501628411877 75.27171726130427 C 0.0 **** -0.24
16662 H 95.59762382200611 50.65082090418899 74.6556003717123 H 0.0 **** 0.06
16663 H 96.54691581206436 51.78905029929999 75.64110960573632 H 0.0 **** 0.06
16664 H 97.37439816398 50.54379275990982 74.67334427289757 H 0.0 **** 0.06
16665 H 96.4395682166869 50.075663843597084 76.11400114060339 H 0.0 **** 0.06
16666 C 96.90211804796076 47.847354916661445 8.231073249511041 C 0.0 **** -0.24
16667 H 96.0476422971746 48.47091012858921 8.491326917709557 H 0.0 **** 0.06
16668 H 97.82246322995411 48.41506421024319 8.37325606483762 H 0.0 **** 0.06
16669 H 96.82303347781743 47.53808663506119 7.188982221016602 H 0.0 **** 0.06
16670 H 96.91630541421165 46.96537097602001 8.872741476038925 H 0.0 **** 0.06
16671 C 73.64990919804063 104.78541415012626 88.45702639134188 C 0.0 **** -0.24
16672 H 73.38498052841862 105.64338372268318 89.07612901936824 H 0.0 **** 0.06
16673 H 73.22331268943296 104.91153415653551 87.46053289416463 H 0.0 **** 0.06
16674 H 73.25469518752934 103.87616445256435 88.90932474846176 H 0.0 **** 0.06
16675 H 74.73463683282665 104.71278359642301 88.38184863638023 H 0.0 **** 0.06
16676 C 68.01515210984576 94.39611908606639 32.06058023107876 C 0.0 **** -0.24
16677 H 67.74634592932668 94.99286917968212 32.931552367279025 H 0.0 **** 0.06
16678 H 68.408642519475 95.04786448004421 31.28058459116575 H 0.0 **** 0.06
16679 H 67.13106578507032 93.87778598353367 31.6885746354896 H 0.0 **** 0.06
16680 H 68.7736939318751 93.66467394407437 32.34082534181243 H 0.0 **** 0.06
16681 C 19.086637333019794 105.75203152160651 0.5078716372942012 C 0.0 **** -0.24
16682 H 19.169099852810476 104.98592628466992 -0.26257538736535935 H 0.0 **** 0.06
16683 H 20.018505154740975 105.80175089887757 1.0723593630530814 H 0.0 **** 0.06
16684 H 18.265992639300535 105.50318590882313 1.180959396726422 H 0.0 **** 0.06
16685 H 18.893007884999793 106.7181770179221 0.040341355899073505 H 0.0 **** 0.06
16686 C 3.639520196147359 5.343991361517844 27.10171414002079 C 0.0 **** -0.24
16687 H 4.2704838915082775 6.069379418095437 27.615869739126396 H 0.0 **** 0.06
16688 H 4.259133894697783 4.5390046727924975 26.706429097262912 H 0.0 **** 0.06
16689 H 3.1162645122125525 5.835659933837633 26.281073219285332 H 0.0 **** 0.06
16690 H 2.912549931858919 4.933474145680714 27.8011465571322 H 0.0 **** 0.06
16691 C 46.94553936834245 65.90589631722423 93.24711558817415 C 0.0 **** -0.24
16692 H 47.17197487516025 66.74242709025765 93.90791825911097 H 0.0 **** 0.06
16693 H 46.55971100250028 66.28577941691088 92.29967143361932 H 0.0 **** 0.06
16694 H 46.196197100960646 65.26670718117589 93.71386323941039 H 0.0 **** 0.06
16695 H 47.85231246062915 65.33033846853533 93.06583793817603 H 0.0 **** 0.06
16696 C 1.7650414495128857 36.62706959671047 69.21720382821661 C 0.0 **** -0.24
16697 H 0.9726425336717277 36.72284036254035 68.47475255342377 H 0.0 **** 0.06
16698 H 1.5650145709483905 35.762634736430044 69.8508217113957 H 0.0 **** 0.06
16699 H 1.7981657160679454 37.527635965085324 69.83160683259217 H 0.0 **** 0.06
16700 H 2.721628839788348 36.49503598266551 68.71290572221676 H 0.0 **** 0.06
16701 C 108.93122750571683 68.51105996852286 65.31877032102744 C 0.0 **** -0.24
16702 H 108.94258288521468 68.94969494462092 64.32099059689924 H 0.0 **** 0.06
16703 H 109.61481746095757 67.66210909153239 65.34998246884123 H 0.0 **** 0.06
16704 H 107.92228186722315 68.1739894894906 65.55607633520538 H 0.0 **** 0.06
16705 H 109.2456881131285 69.25763710997745 66.04839700190146 H 0.0 **** 0.06
16706 C 110.50680106049764 53.1672893826458 55.566420019890735 C 0.0 **** -0.24
16707 H 109.80042585650165 53.73591221667144 54.96074835217508 H 0.0 **** 0.06
16708 H 110.4694782695815 52.11688309322156 55.275750676078566 H 0.0 **** 0.06
16709 H 110.24163338513794 53.26230851727317 56.61889109858104 H 0.0 **** 0.06
16710 H 111.51368482838392 53.55304786835419 55.40782804344711 H 0.0 **** 0.06
16711 C 2.73411435235505 51.5496872624222 32.446819694272705 C 0.0 **** -0.24
16712 H 2.5220919172178355 52.25314436879978 33.251931827114184 H 0.0 **** 0.06
16713 H 3.283588111096037 52.05962596383182 31.6549098943092 H 0.0 **** 0.06
16714 H 1.7981428054127377 51.16072720037124 32.04805009038329 H 0.0 **** 0.06
16715 H 3.3344897885816636 50.72633819727042 32.833560702369844 H 0.0 **** 0.06
16716 C 57.22110201246178 47.73329842075509 44.55252926038294 C 0.0 **** -0.24
16717 H 56.26533901049469 48.12073784827544 44.90589983113814 H 0.0 **** 0.06
16718 H 57.854434884851706 47.49496784959763 45.407563194614255 H 0.0 **** 0.06
16719 H 57.711463660288736 48.485636841972564 43.93484624003557 H 0.0 **** 0.06
16720 H 57.052522651000835 46.832168759635806 43.96302413714467 H 0.0 **** 0.06
16721 C 79.31060106137176 50.81584534066502 61.316546075620806 C 0.0 **** -0.24
16722 H 79.97463029667534 50.03805667519836 61.695292697503504 H 0.0 **** 0.06
16723 H 78.31417856598603 50.6782025906483 61.73656233242414 H 0.0 **** 0.06
16724 H 79.26044086461911 50.753974233119365 60.22981205046344 H 0.0 **** 0.06
16725 H 79.69587682698551 51.793737634161545 61.60680675487305 H 0.0 **** 0.06
16726 C 77.74027399496998 31.72685464863291 102.85372562691663 C 0.0 **** -0.24
16727 H 77.41091028066205 30.706383242437617 103.0462160111274 H 0.0 **** 0.06
16728 H 78.12485986824072 31.79827267382545 101.83552268431575 H 0.0 **** 0.06
16729 H 78.52653654522157 31.994049140899563 103.5590476890628 H 0.0 **** 0.06
16730 H 76.8976038647337 32.40849688147842 102.97198347562184 H 0.0 **** 0.06
16731 C 24.583872243829887 13.198678263700344 114.35949970191666 C 0.0 **** -0.24
16732 H 25.57455991191705 13.078821913818842 114.79775801968917 H 0.0 **** 0.06
16733 H 24.51385111625092 14.176444465703725 113.88224369509575 H 0.0 **** 0.06
16734 H 23.828779599300788 13.12003151296338 115.14174311729603 H 0.0 **** 0.06
16735 H 24.419254358204057 12.417674386813133 113.61601738088164 H 0.0 **** 0.06
16736 C 105.9042028346378 8.481542850466951 104.57954602446915 C 0.0 **** -0.24
16737 H 105.8604629313021 8.228120278855158 105.63830838163261 H 0.0 **** 0.06
16738 H 106.56059076933698 7.778814300813963 104.06499912954263 H 0.0 **** 0.06
16739 H 106.29259932122085 9.493117654346975 104.46268057759306 H 0.0 **** 0.06
16740 H 104.90355209203196 8.425008102318998 104.15004872648501 H 0.0 **** 0.06
16741 C 92.91314479416769 90.90230272854217 87.82187414789522 C 0.0 **** -0.24
16742 H 92.18837672662175 91.27267587004366 87.09696177974487 H 0.0 **** 0.06
16743 H 92.93800559011376 89.8125156413513 87.78576188981117 H 0.0 **** 0.06
16744 H 92.62526770735943 91.22652415654042 88.8211149193396 H 0.0 **** 0.06
16745 H 93.9001800779206 91.29632677428182 87.58190476262516 H 0.0 **** 0.06
16746 C 11.268135366357207 9.205755540179837 23.34703243662752 C 0.0 **** -0.24
16747 H 11.533065789414923 10.226105425360515 23.070191437556804 H 0.0 **** 0.06
16748 H 12.156906451192587 8.575593138608042 23.30007142318043 H 0.0 **** 0.06
16749 H 10.51507105444983 8.825257770232156 22.657176266039112 H 0.0 **** 0.06
16750 H 10.869407359135494 9.196333278024156 24.36182365027389 H 0.0 **** 0.06
16751 C 70.93170719985451 14.829625316229311 114.95455403769077 C 0.0 **** -0.24
16752 H 72.00650420092057 14.652921296193 114.9743779075497 H 0.0 **** 0.06
16753 H 70.73518444200624 15.891394315084966 115.10719555235059 H 0.0 **** 0.06
16754 H 70.45420684611281 14.253940428132637 115.74865440797777 H 0.0 **** 0.06
16755 H 70.53012175297741 14.520135169555886 113.99029687781982 H 0.0 **** 0.06
16756 C 25.747097441387353 20.65218950892689 50.44431848322739 C 0.0 **** -0.24
16757 H 25.162765858194604 19.980113650388432 51.07175017745291 H 0.0 **** 0.06
16758 H 26.59896501213271 20.112866983862002 50.029429516551716 H 0.0 **** 0.06
16759 H 26.10458178147988 21.489213396101082 51.043706420257394 H 0.0 **** 0.06
16760 H 25.1234295445108 21.02639028775667 49.63276314425505 H 0.0 **** 0.06
16761 C 22.809012434899817 99.42120494716136 112.8413114759807 C 0.0 **** -0.24
16762 H 22.668767413325376 100.43008183003099 113.22898623198594 H 0.0 **** 0.06
16763 H 21.92894177312288 98.81970654507353 113.07044530128292 H 0.0 **** 0.06
16764 H 23.687523066060933 98.97299354687081 113.30515364816304 H 0.0 **** 0.06
16765 H 22.948951413013024 99.463607836119 111.76042982907856 H 0.0 **** 0.06
16766 C 0.8469915682464375 14.88371829236678 100.00024242330903 C 0.0 **** -0.24
16767 H 1.9175361036719778 14.680631683918477 100.00309669615922 H 0.0 **** 0.06
16768 H 0.39139727583525996 14.44377982973947 100.88817149590653 H 0.0 **** 0.06
16769 H 0.3979534246878984 14.448639798656927 99.1074729080976 H 0.0 **** 0.06
16770 H 0.6810981742323747 15.960776638572383 100.0031811078108 H 0.0 **** 0.06
16771 C 96.32109203547111 36.709089901478876 35.91392686732007 C 0.0 **** -0.24
16772 H 95.93831876314846 35.750559107393485 36.26305184608839 H 0.0 **** 0.06
16773 H 96.57434026333908 36.63603750616875 34.85665131123943 H 0.0 **** 0.06
16774 H 97.2127288076465 36.97372046498862 36.48345436653548 H 0.0 **** 0.06
16775 H 95.5600761975831 37.4766548214335 36.054653387773385 H 0.0 **** 0.06
16776 C 9.769792579632565 17.68113283147015 46.249545577509195 C 0.0 **** -0.24
16777 H 10.110360817461128 18.67254488549048 45.952981408698605 H 0.0 **** 0.06
16778 H 10.103189490083622 16.948333268457148 45.51504354273126 H 0.0 **** 0.06
16779 H 8.681296736163745 17.671978959311758 46.30349883631416 H 0.0 **** 0.06
16780 H 10.18356825963616 17.43102046998908 47.226607232035576 H 0.0 **** 0.06
16781 C 53.25786608028671 73.11127048119943 18.9714293542458 C 0.0 **** -0.24
16782 H 53.49918017176738 72.8366658569696 19.997711335371577 H 0.0 **** 0.06
16783 H 52.53276433449918 73.92656282479919 18.974422042932787 H 0.0 **** 0.06
16784 H 52.83398473286758 72.25053029218603 18.454435273139467 H 0.0 **** 0.06
16785 H 54.164710415204475 73.43337170718613 18.458089109746084 H 0.0 **** 0.06
16786 C 9.752122426163623 60.65925342154454 49.22961590565783 C 0.0 **** -0.24
16787 H 9.60081640850288 60.31039674958223 50.251100840584215 H 0.0 **** 0.06
16788 H 10.760352436610532 60.401929641439644 48.90333420622295 H 0.0 **** 0.06
16789 H 9.62243231858892 61.7410024769108 49.19223356168909 H 0.0 **** 0.06
16790 H 9.02387361304882 60.182812548623566 48.57225237958754 H 0.0 **** 0.06
16791 C 69.55811038737022 8.120316298879288 57.52603179912339 C 0.0 **** -0.24
16792 H 68.98585609840904 8.869765402782008 56.97952469190247 H 0.0 **** 0.06
16793 H 69.57195422651193 8.376368405629123 58.58534602083705 H 0.0 **** 0.06
16794 H 70.5792418233791 8.09387060920406 57.14433396157608 H 0.0 **** 0.06
16795 H 69.09528945271734 7.142539106549606 57.393387556910085 H 0.0 **** 0.06
16796 C 70.62968394318756 84.3441152104055 66.0708257031599 C 0.0 **** -0.24
16797 H 69.90679208805267 84.62964007231963 65.30630761161942 H 0.0 **** 0.06
16798 H 71.6019768046765 84.7766478415248 65.83008473695133 H 0.0 **** 0.06
16799 H 70.7129526627983 83.25737084330666 66.10379569347566 H 0.0 **** 0.06
16800 H 70.29766342877872 84.71235435439132 67.04127675690123 H 0.0 **** 0.06
16801 C 115.12253907074432 50.267788996070806 24.236956284194434 C 0.0 **** -0.24
16802 H 115.71308952076441 49.39153989058238 23.967566796263554 H 0.0 **** 0.06
16803 H 114.50027924421389 50.033929759990315 25.100850686051558 H 0.0 **** 0.06
16804 H 114.48848890758788 50.549151496473996 23.396777469787594 H 0.0 **** 0.06
16805 H 115.78996360135156 51.09406145014563 24.482297492752934 H 0.0 **** 0.06
16806 C 63.72333375090881 104.56673065079764 98.50287033102171 C 0.0 **** -0.24
16807 H 64.15891648304478 104.27540459465004 99.45882629141533 H 0.0 **** 0.06
16808 H 64.1155883812786 105.54066189068851 98.2072450466955 H 0.0 **** 0.06
16809 H 62.63938483006103 104.6258775278242 98.60006774317145 H 0.0 **** 0.06
16810 H 63.98100237011738 103.82644658302505 97.74653426055482 H 0.0 **** 0.06
16811 C 43.973298280307546 100.98531572389703 103.72253783019087 C 0.0 **** -0.24
16812 H 44.957288489231416 100.67417181699506 103.37119650669771 H 0.0 **** 0.06
16813 H 44.01500264952696 102.02519627879548 104.04427383296044 H 0.0 **** 0.06
16814 H 43.6714625852257 100.35683824144019 104.55992733722476 H 0.0 **** 0.06
16815 H 43.25040778507352 100.88300846370231 102.91278690654454 H 0.0 **** 0.06
16816 C 92.95731182900585 20.677376560441587 101.98360682536227 C 0.0 **** -0.24
16817 H 92.45698475375377 19.72457855781289 101.80975986682475 H 0.0 **** 0.06
16818 H 93.95336954134416 20.49592533823568 102.3864075286562 H 0.0 **** 0.06
16819 H 92.378717806569 21.26590004188742 102.69529707193493 H 0.0 **** 0.06
16820 H 93.03851949310621 21.22165093388523 101.04257244618259 H 0.0 **** 0.06
16821 C 79.679768502515 27.635305981200474 109.69670100135245 C 0.0 **** -0.24
16822 H 78.71572089557807 27.12593968417241 109.69102675502077 H 0.0 **** 0.06
16823 H 79.66832400436954 28.422756485569835 110.45048990388523 H 0.0 **** 0.06
16824 H 79.86459866245806 28.07223747413275 108.71607540195022 H 0.0 **** 0.06
16825 H 80.46693494702251 26.918531637128524 109.93051180384333 H 0.0 **** 0.06
16826 C 16.161344439110735 13.800095851777428 76.78494292597861 C 0.0 **** -0.24
16827 H 15.722567438974778 14.525705706318433 76.09982171976844 H 0.0 **** 0.06
16828 H 15.388125311183956 13.412633174061284 77.44809132493324 H 0.0 **** 0.06
16829 H 16.938837415386388 14.284255472944153 77.37693293537953 H 0.0 **** 0.06
16830 H 16.597314467702972 12.979695329534195 76.21446233036141 H 0.0 **** 0.06
16831 C 45.873757313849325 104.90042286726836 45.064138188839465 C 0.0 **** -0.24
16832 H 45.09480226960085 105.4246804824437 45.617647855164336 H 0.0 **** 0.06
16833 H 45.42291548039009 104.114622664228 44.45700910901796 H 0.0 **** 0.06
16834 H 46.58136242278461 104.45723720310764 45.76551362106993 H 0.0 **** 0.06
16835 H 46.39686377674812 105.60550498572283 44.41740110548452 H 0.0 **** 0.06
16836 C 74.69516038293597 46.09638573360846 111.67858383764887 C 0.0 **** -0.24
16837 H 75.66933576898981 45.84349337065646 111.26083905996782 H 0.0 **** 0.06
16838 H 73.91347552638223 45.60543512384109 111.09987995579561 H 0.0 **** 0.06
16839 H 74.55376042112198 47.17613297720902 111.63911403173711 H 0.0 **** 0.06
16840 H 74.64628704102518 45.76065798373881 112.71473260820518 H 0.0 **** 0.06
16841 C 7.005390529008906 85.91896508724804 84.3126604864639 C 0.0 **** -0.24
16842 H 6.8124991631895995 85.4925682156753 83.32775305426739 H 0.0 **** 0.06
16843 H 8.080913981765761 85.94245916324851 84.49306114474027 H 0.0 **** 0.06
16844 H 6.522585380323079 85.30639697576206 85.07372187077286 H 0.0 **** 0.06
16845 H 6.60769325861709 86.9325912576108 84.35466989493654 H 0.0 **** 0.06
16846 C 10.056306152691093 65.70535792702844 14.930363490092468 C 0.0 **** -0.24
16847 H 10.011149549207886 66.30404186833442 14.020971744323703 H 0.0 **** 0.06
16848 H 11.062401464853636 65.75527623175753 15.347464659176637 H 0.0 **** 0.06
16849 H 9.811335040548528 64.66949702109957 14.695786637607544 H 0.0 **** 0.06
16850 H 9.341624959209696 66.09209942601495 15.656951942785383 H 0.0 **** 0.06
16851 C 105.55421771545139 42.11506282613925 25.955072109468617 C 0.0 **** -0.24
16852 H 105.14040446549726 43.093901416786 26.198233775083338 H 0.0 **** 0.06
16853 H 105.09404429967532 41.74501291105804 25.038156884326632 H 0.0 **** 0.06
16854 H 105.34937870504726 41.42133093049435 26.769548576007665 H 0.0 **** 0.06
16855 H 106.63109017435318 42.20111495505253 25.812360286649394 H 0.0 **** 0.06
16856 C 57.97193432964989 64.6339109082158 116.48450234702153 C 0.0 **** -0.24
16857 H 58.44989126845446 65.23597166603895 117.25830727476477 H 0.0 **** 0.06
16858 H 58.02190596948886 65.16227871191921 115.53263878434865 H 0.0 **** 0.06
16859 H 56.92949848778799 64.46095074101984 116.75094414376389 H 0.0 **** 0.06
16860 H 58.488339067575545 63.67824799573893 116.39789130414096 H 0.0 **** 0.06
16861 C 66.29079839188358 86.02946223644156 11.883467793717017 C 0.0 **** -0.24
16862 H 66.41268124516719 84.965601932782 11.6830863713148 H 0.0 **** 0.06
16863 H 67.20153038396674 86.55913212038121 11.60380545583449 H 0.0 **** 0.06
16864 H 66.09455361594692 86.1791415084044 12.944630365471312 H 0.0 **** 0.06
16865 H 65.45300499078687 86.41498438079688 11.300951733846006 H 0.0 **** 0.06
16866 C 69.13426813529367 58.65047375367885 29.07998819267584 C 0.0 **** -0.24
16867 H 70.07615391407688 58.899371481297806 29.567963617159336 H 0.0 **** 0.06
16868 H 68.48487771430706 59.526245891554424 29.07711709446292 H 0.0 **** 0.06
16869 H 68.64861488066282 57.83821964723131 29.62059353357057 H 0.0 **** 0.06
16870 H 69.32838230176395 58.338338992427055 28.053275178749942 H 0.0 **** 0.06
16871 C 32.478150728802746 1.0864309310040596 2.791675215430658 C 0.0 **** -0.24
16872 H 33.00015971491388 0.13338667561323803 2.7055344177410916 H 0.0 **** 0.06
16873 H 33.082321034275026 1.7788827136678833 3.3794811763251857 H 0.0 **** 0.06
16874 H 31.51887303348991 0.9329828987194446 3.285636701722467 H 0.0 **** 0.06
16875 H 32.313125577932965 1.5018928310440032 1.7981602404666006 H 0.0 **** 0.06
16876 C 13.850571778937365 3.1383195764582386 59.653486657072555 C 0.0 **** -0.24
16877 H 14.652670251192546 2.4411522837753896 59.4150361059916 H 0.0 **** 0.06
16878 H 12.893335542703369 2.615184298390231 59.62749854702182 H 0.0 **** 0.06
16879 H 13.842221777868758 3.9470896813823106 58.922334690364174 H 0.0 **** 0.06
16880 H 14.012012705926963 3.5511743543614447 60.64932687064607 H 0.0 **** 0.06
16881 C 0.12651001158712916 32.73452572001961 101.89791047934821 C 0.0 **** -0.24
16882 H 0.6409004977427344 31.912943344691342 102.39707661588082 H 0.0 **** 0.06
16883 H 0.6637939884550406 33.66457520747793 102.08309642936013 H 0.0 **** 0.06
16884 H -0.8883973747987852 32.81606641548689 102.28566944547569 H 0.0 **** 0.06
16885 H 0.09158565341743952 32.54215079892474 100.82575838050425 H 0.0 **** 0.06
16886 C 68.26883533455106 107.37699598514047 57.81741048177065 C 0.0 **** -0.24
16887 H 68.35476234775206 107.6976656083904 58.855903399381134 H 0.0 **** 0.06
16888 H 68.31426858401133 108.24763181610379 57.16336230288431 H 0.0 **** 0.06
16889 H 67.31834640180054 106.86272272313826 57.67356405412002 H 0.0 **** 0.06
16890 H 69.08840559444604 106.69826444246993 57.578196907751334 H 0.0 **** 0.06
16891 C 51.62810020798838 106.8312081338625 14.704210155701471 C 0.0 **** -0.24
16892 H 52.17101533047719 105.953873015109 15.05317880341375 H 0.0 **** 0.06
16893 H 50.97294411598796 106.5493733163384 13.879642012166403 H 0.0 **** 0.06
16894 H 52.337768613114406 107.585609713449 14.362082876149298 H 0.0 **** 0.06
16895 H 51.03057658806114 107.23769946883672 15.520514825361985 H 0.0 **** 0.06
16896 C 39.835401109389466 42.53880863649073 53.46952075204922 C 0.0 **** -0.24
16897 H 40.62675777491651 41.79871850280466 53.59079820729562 H 0.0 **** 0.06
16898 H 39.1124248697092 42.431824473437075 54.27925268909752 H 0.0 **** 0.06
16899 H 39.33649708994639 42.38397486939715 52.51296273685861 H 0.0 **** 0.06
16900 H 40.26736847021809 43.539307128637915 53.497051572776 H 0.0 **** 0.06
16901 C 29.289754124218426 58.2178562912699 84.62311392395398 C 0.0 **** -0.24
16902 H 28.822936830977206 57.93273175252142 83.68047265650719 H 0.0 **** 0.06
16903 H 29.51709005438334 57.32216846392879 85.20174998758546 H 0.0 **** 0.06
16904 H 28.60747420224964 58.85291355754032 85.189080708396 H 0.0 **** 0.06
16905 H 30.210887949893447 58.7641722388702 84.42266625173121 H 0.0 **** 0.06
16906 C 91.67849593527197 1.9067696804123386 68.86280843198651 C 0.0 **** -0.24
16907 H 90.67371814859848 2.063887566528649 69.25418612187661 H 0.0 **** 0.06
16908 H 91.91931875038244 0.8447991791663583 68.89504066427972 H 0.0 **** 0.06
16909 H 92.39487484976925 2.461181578331292 69.46936484784041 H 0.0 **** 0.06
16910 H 91.7258303234338 2.2589184232118384 67.83248582854202 H 0.0 **** 0.06
16911 C 96.65768688523929 56.74695498394567 11.812974774338386 C 0.0 **** -0.24
16912 H 95.9912412797593 56.94806936466682 10.974050318366864 H 0.0 **** 0.06
16913 H 96.09087646201385 56.29186716456286 12.62630379103831 H 0.0 **** 0.06
16914 H 97.10140638682415 57.6811703555162 12.156411201049991 H 0.0 **** 0.06
16915 H 97.44712552696211 56.065833496174605 11.494668104879366 H 0.0 **** 0.06
16916 C 7.653380720240307 81.57771378457994 86.34419591436489 C 0.0 **** -0.24
16917 H 7.606521964079775 81.4705983130566 87.4276115597437 H 0.0 **** 0.06
16918 H 8.623690032884326 81.98734971656742 86.0604754449271 H 0.0 **** 0.06
16919 H 6.863135483362598 82.25145134505388 86.01140289773195 H 0.0 **** 0.06
16920 H 7.519770729351322 80.60253685918121 85.87647669343957 H 0.0 **** 0.06
16921 C 41.782864331427675 59.15835534827664 89.8585541107413 C 0.0 **** -0.24
16922 H 41.290480558207065 58.2307745999052 90.15046871819396 H 0.0 **** 0.06
16923 H 41.27158016086614 59.58519864438341 88.99554352001905 H 0.0 **** 0.06
16924 H 42.821667756367475 58.95275086255475 89.60176400181592 H 0.0 **** 0.06
16925 H 41.747062884671266 59.86472716889784 90.68936528743075 H 0.0 **** 0.06
16926 C 87.30460070604107 86.72237572061226 7.775811007782366 C 0.0 **** -0.24
16927 H 87.50152662047975 85.73099333639254 7.3677814524582885 H 0.0 **** 0.06
16928 H 87.49829819562552 86.71844837207982 8.847759111434584 H 0.0 **** 0.06
16929 H 86.26244103918094 86.98785132943465 7.59505160508985 H 0.0 **** 0.06
16930 H 87.95466781747484 87.45070920742273 7.290287488468266 H 0.0 **** 0.06
16931 C 72.92227150594385 88.2989999604304 56.1823454115553 C 0.0 **** -0.24
16932 H 72.52140415653577 89.28087637565284 56.43278303536201 H 0.0 **** 0.06
16933 H 72.13715742929696 87.54958160117707 56.28375047590495 H 0.0 **** 0.06
16934 H 73.74444634163251 88.05893719929455 56.85659713175923 H 0.0 **** 0.06
16935 H 73.28604865562608 88.30756694471029 55.15481109823136 H 0.0 **** 0.06
16936 C 82.15220584219605 91.30809742619678 52.0591049098384 C 0.0 **** -0.24
16937 H 82.05295692782448 90.25983344851616 52.33992909052252 H 0.0 **** 0.06
16938 H 82.1434337938756 91.39600278036824 50.97248690394929 H 0.0 **** 0.06
16939 H 83.09107206684467 91.70205754836587 52.448596393214544 H 0.0 **** 0.06
16940 H 81.31989855994385 91.87517478047522 52.47659126498789 H 0.0 **** 0.06
16941 C 80.64459673769159 107.02303409955061 82.33564597288591 C 0.0 **** -0.24
16942 H 79.55947630337351 107.05135719092192 82.43695459487725 H 0.0 **** 0.06
16943 H 81.05809424342837 108.00132388298431 82.58095982062954 H 0.0 **** 0.06
16944 H 80.90633951930255 106.76397869450173 81.30904767699553 H 0.0 **** 0.06
16945 H 81.05249010617501 106.27379505915977 83.01451477788359 H 0.0 **** 0.06
16946 C 54.95122784442964 17.226600258526577 97.66892994641483 C 0.0 **** -0.24
16947 H 55.7124736258412 17.04295168434348 96.91099063285168 H 0.0 **** 0.06
16948 H 55.43193764317846 17.508381045300773 98.60627764121381 H 0.0 **** 0.06
16949 H 54.36350470335191 16.32185087974268 97.82008868072938 H 0.0 **** 0.06
16950 H 54.29768302250511 18.03431313955465 97.33893441440568 H 0.0 **** 0.06
16951 C 77.88899972791441 111.41284730655953 78.71983413504313 C 0.0 **** -0.24
16952 H 78.21812710479844 110.7293980897502 77.93726957695534 H 0.0 **** 0.06
16953 H 76.91170227824034 111.09789779971567 79.08728690648582 H 0.0 **** 0.06
16954 H 77.81786503823423 112.42175041375167 78.31359610863956 H 0.0 **** 0.06
16955 H 78.60702428752612 111.4002314080459 79.5394800972764 H 0.0 **** 0.06
16956 C 28.44414018826552 88.51353283632119 47.65923962659292 C 0.0 **** -0.24
16957 H 28.9499470948152 89.40741035695413 48.02633280886448 H 0.0 **** 0.06
16958 H 28.31771513462158 87.80633007052066 48.479449333483615 H 0.0 **** 0.06
16959 H 29.042664597132358 88.05497358973855 46.87240680681322 H 0.0 **** 0.06
16960 H 27.467556844865072 88.78758002994721 47.2603736550966 H 0.0 **** 0.06
16961 C 24.951550792681843 20.660556268320363 58.13758783186126 C 0.0 **** -0.24
16962 H 25.912609110712282 21.00248838950833 57.75214865658632 H 0.0 **** 0.06
16963 H 25.020868918811516 19.603611869468352 58.397679328071426 H 0.0 **** 0.06
16964 H 24.186088874097862 20.797608458505437 57.37450222034145 H 0.0 **** 0.06
16965 H 24.689253768809237 21.237786490520023 59.023872476801166 H 0.0 **** 0.06
16966 C 25.929431985817814 109.70938276001442 82.50813000838335 C 0.0 **** -0.24
16967 H 25.247071914304342 109.27252922722604 81.77809455393322 H 0.0 **** 0.06
16968 H 26.91057078189067 109.24328198414612 82.41265358777082 H 0.0 **** 0.06
16969 H 25.54257823125596 109.54005394774639 83.5133214966499 H 0.0 **** 0.06
16970 H 26.0158480690784 110.7808171906764 82.3272143082913 H 0.0 **** 0.06
16971 C 112.41510799251209 94.583688876906 6.523698914899512 C 0.0 **** -0.24
16972 H 111.35063237077702 94.45036951990943 6.329069514761102 H 0.0 **** 0.06
16973 H 112.55034935198793 95.33620286976787 7.301254373948325 H 0.0 **** 0.06
16974 H 112.91343125856946 94.91038220934084 5.610329644712579 H 0.0 **** 0.06
16975 H 112.84480655451874 93.6384004664911 6.853729028410044 H 0.0 **** 0.06
16976 C 88.6366331404245 20.893464680497647 39.612799073435454 C 0.0 **** -0.24
16977 H 88.88788457693559 20.904166651452314 40.673531445772426 H 0.0 **** 0.06
16978 H 88.79719319479017 21.88594311994834 39.1911475474856 H 0.0 **** 0.06
16979 H 87.59154149414451 20.610004789958168 39.48964110489575 H 0.0 **** 0.06
16980 H 89.2716811640631 20.172051758043988 39.096772447414196 H 0.0 **** 0.06
16981 C 15.048268486428611 67.13226204958139 81.10776966430507 C 0.0 **** -0.24
16982 H 15.9376147286915 67.33653489178468 81.70516309932668 H 0.0 **** 0.06
16983 H 15.020505115224864 67.80793769530678 80.25391869270845 H 0.0 **** 0.06
16984 H 14.159143095311123 67.28061068310319 81.71992539586336 H 0.0 **** 0.06
16985 H 15.078076282266181 66.10081024274274 80.75505775111412 H 0.0 **** 0.06
16986 C 96.77726685396178 70.16778989949887 46.15057427200418 C 0.0 **** -0.24
16987 H 97.46926585289532 70.9832969429541 46.3593338886933 H 0.0 **** 0.06
16988 H 97.28107648459178 69.40771253107471 45.55262672222449 H 0.0 **** 0.06
16989 H 95.91752999790532 70.55144286364418 45.60070888778466 H 0.0 **** 0.06
16990 H 96.44067101819533 69.72797582011026 47.09006395156547 H 0.0 **** 0.06
16991 C 70.03551945092966 98.84889252238784 50.4777668578148 C 0.0 **** -0.24
16992 H 70.81516748508079 99.59152879491177 50.309406376179595 H 0.0 **** 0.06
16993 H 70.29142370549516 97.92882082074021 49.95041957341371 H 0.0 **** 0.06
16994 H 69.08419406526846 99.22904079166304 50.10550583416048 H 0.0 **** 0.06
16995 H 69.952357268888 98.64528280785632 51.5454864455603 H 0.0 **** 0.06
16996 C 78.5619782700752 37.81237462346249 76.56052656077657 C 0.0 **** -0.24
16997 H 78.58256489801346 38.78526647422194 76.06934674806911 H 0.0 **** 0.06
16998 H 79.40233327465916 37.21184534445021 76.2111269849517 H 0.0 **** 0.06
16999 H 77.62760482427149 37.303950014770436 76.3213661883446 H 0.0 **** 0.06
17000 H 78.63570309513068 37.94831639262631 77.63888799091654 H 0.0 **** 0.06
17001 C 114.82576253828043 83.78359533309549 96.24686435453785 C 0.0 **** -0.24
17002 H 114.28127681003402 84.71733809931337 96.38441672528577 H 0.0 **** 0.06
17003 H 115.74405296455996 83.80917452203019 96.83458744803417 H 0.0 **** 0.06
17004 H 115.0728807337558 83.65958359816031 95.19263637289683 H 0.0 **** 0.06
17005 H 114.20640124044408 82.94988382997383 96.57574062985546 H 0.0 **** 0.06
17006 C 75.08198271627697 85.98019216815143 108.21417024863689 C 0.0 **** -0.24
17007 H 75.28173471710286 86.16580694778634 107.15798022745517 H 0.0 **** 0.06
17008 H 75.7529518109015 86.58715226782314 108.82240943103751 H 0.0 **** 0.06
17009 H 75.24428606695665 84.92598483345796 108.43394595449824 H 0.0 **** 0.06
17010 H 74.04817777707677 86.24408512085006 108.4394675707271 H 0.0 **** 0.06
17011 C 89.53976841443497 64.08629348894598 33.46880164103031 C 0.0 **** -0.24
17012 H 90.18979957761638 63.224040456725845 33.614808888361964 H 0.0 **** 0.06
17013 H 90.02370224883038 64.79769186539664 32.79884386741678 H 0.0 **** 0.06
17014 H 89.34814115509266 64.56423708553692 34.429904612507556 H 0.0 **** 0.06
17015 H 88.596060293383 63.75953436086081 33.03153347810763 H 0.0 **** 0.06
17016 C 89.58668498440898 94.80372445574778 10.193517921905382 C 0.0 **** -0.24
17017 H 89.57344600879316 95.03026063322923 9.127042840509446 H 0.0 **** 0.06
17018 H 89.16056413976787 95.6404464529399 10.747112803754135 H 0.0 **** 0.06
17019 H 90.61431825161856 94.63880557939663 10.51620903489669 H 0.0 **** 0.06
17020 H 88.99811358751145 93.90632684191291 10.380097954727049 H 0.0 **** 0.06
17021 C 9.46479007202521 100.52631433526508 89.11869831535947 C 0.0 **** -0.24
17022 H 9.82686620845746 100.54699258076585 90.1465247784572 H 0.0 **** 0.06
17023 H 10.314155376588715 100.49678198539198 88.43523839630927 H 0.0 **** 0.06
17024 H 8.872616501877275 101.42014414030169 88.92487196629978 H 0.0 **** 0.06
17025 H 8.846641651165868 99.64119897535392 88.9690110231318 H 0.0 **** 0.06
17026 C 3.956957874230289 72.47137156872807 54.10084102745824 C 0.0 **** -0.24
17027 H 3.0788062274591006 71.83284235181605 54.00394882589381 H 0.0 **** 0.06
17028 H 3.768684804526597 73.42321460734522 53.60275757087315 H 0.0 **** 0.06
17029 H 4.813893454357947 71.98251339246849 53.63813915765152 H 0.0 **** 0.06
17030 H 4.1638060675964255 72.64732280051604 55.155899264711834 H 0.0 **** 0.06
17031 C 24.868341058748996 71.39285995433602 18.95452599798773 C 0.0 **** -0.24
17032 H 25.709910819295317 70.9446962078191 18.427212519660884 H 0.0 **** 0.06
17033 H 24.18043590275903 70.60841494685803 19.272624391178454 H 0.0 **** 0.06
17034 H 24.350327720937088 72.08378614040646 18.28996591097456 H 0.0 **** 0.06
17035 H 25.232563092369674 71.93321294055932 19.82876622476016 H 0.0 **** 0.06
17036 C 112.6156119293186 77.78894663279641 101.97544438209644 C 0.0 **** -0.24
17037 H 113.66704004499566 77.54191187228082 101.83102600297937 H 0.0 **** 0.06
17038 H 112.07631251851298 77.63987783650919 101.03954232761862 H 0.0 **** 0.06
17039 H 112.52657674230932 78.83055750680114 102.28514024569373 H 0.0 **** 0.06
17040 H 112.19275885572016 77.14363773314099 102.74511875470216 H 0.0 **** 0.06
17041 C 0.7470388397065673 60.83136953244221 61.344294288542066 C 0.0 **** -0.24
17042 H 0.9601181627757533 61.67528089080568 62.00165939284884 H 0.0 **** 0.06
17043 H 1.6612035427187894 60.25977234839121 61.179729403260275 H 0.0 **** 0.06
17044 H 0.37203280607471356 61.20067297869326 60.389606682899206 H 0.0 **** 0.06
17045 H -0.003952603376482955 60.191158917821724 61.80739276524863 H 0.0 **** 0.06
17046 C 51.97024052572818 44.70899576050661 52.972736759440096 C 0.0 **** -0.24
17047 H 51.26755561455427 43.93326349423867 53.274583155708086 H 0.0 **** 0.06
17048 H 52.361951134155674 44.47839754292775 51.980857047909765 H 0.0 **** 0.06
17049 H 52.7926714641871 44.75235449702538 53.6871948566914 H 0.0 **** 0.06
17050 H 51.46070734205897 45.67226850950476 52.94721196814099 H 0.0 **** 0.06
17051 C 6.22429772514559 74.76036915424021 110.86869637261145 C 0.0 **** -0.24
17052 H 6.233305295977175 75.42613756563202 111.73189465280376 H 0.0 **** 0.06
17053 H 5.700722948667533 73.83982563610078 111.12554460613313 H 0.0 **** 0.06
17054 H 7.250160495368789 74.52750772869643 110.58021379192763 H 0.0 **** 0.06
17055 H 5.715767648952607 75.24927030678055 110.03800042006645 H 0.0 **** 0.06
17056 C 5.031953777775925 112.17487280697615 98.08426922096658 C 0.0 **** -0.24
17057 H 5.931397778277955 112.74131934136325 98.32365745098105 H 0.0 **** 0.06
17058 H 4.467496117277591 112.6981743219957 97.31274733795397 H 0.0 **** 0.06
17059 H 4.4177106217941 112.073219524936 98.97941555985255 H 0.0 **** 0.06
17060 H 5.312101173764006 111.18538129945401 97.72176265594624 H 0.0 **** 0.06
17061 C 38.7528211968438 116.52923199663041 69.26674664937434 C 0.0 **** -0.24
17062 H 37.76511552142654 116.10746502840522 69.07393265848003 H 0.0 **** 0.06
17063 H 38.971905413796634 116.46547542943773 70.33239346983513 H 0.0 **** 0.06
17064 H 38.76881320900574 117.57326277554506 68.95298242512695 H 0.0 **** 0.06
17065 H 39.501198284738535 115.96896057852695 68.70678003902853 H 0.0 **** 0.06
17066 C 12.741768528456959 13.028551146486073 70.4999619143687 C 0.0 **** -0.24
17067 H 12.187931374933243 12.980876509439039 71.43793555061754 H 0.0 **** 0.06
17068 H 13.79617136535012 13.210751203064692 70.71159569689004 H 0.0 **** 0.06
17069 H 12.348666265069568 13.839840720167658 69.88742800288327 H 0.0 **** 0.06
17070 H 12.634275604431025 12.084630240818814 69.96655072175221 H 0.0 **** 0.06
17071 C 112.27339699949698 38.02391859771157 85.30686710470164 C 0.0 **** -0.24
17072 H 111.48734391523477 38.54806459741522 84.76196200483682 H 0.0 **** 0.06
17073 H 113.20358083685899 38.073996255323664 84.7403962287174 H 0.0 **** 0.06
17074 H 111.98696617268506 36.98106109243926 85.44206162028738 H 0.0 **** 0.06
17075 H 112.41402257622582 38.49176117594979 86.28144534932642 H 0.0 **** 0.06
17076 C 33.30654309805303 84.62875896582949 32.62221491610567 C 0.0 **** -0.24
17077 H 33.24766160316494 85.3250505330098 33.45859818486355 H 0.0 **** 0.06
17078 H 32.467122192324126 84.79966265808417 31.948598996789286 H 0.0 **** 0.06
17079 H 33.268867467281126 83.60653157472103 32.99865836679493 H 0.0 **** 0.06
17080 H 34.242585326501285 84.78512392013505 32.085498094116 H 0.0 **** 0.06
17081 C 88.65322211080883 45.699098568905924 93.4864503319169 C 0.0 **** -0.24
17082 H 87.79422237072225 45.44656141210265 94.1078506685202 H 0.0 **** 0.06
17083 H 88.46367844613246 45.38652877699687 92.45982320394364 H 0.0 **** 0.06
17084 H 89.5374898952889 45.187213338107554 93.8650819676202 H 0.0 **** 0.06
17085 H 88.81600447636654 46.77685398731214 93.51452465862309 H 0.0 **** 0.06
17086 C 74.28619196340347 9.358951518082637 89.93900000031661 C 0.0 **** -0.24
17087 H 74.6946756583992 8.442651201092922 90.36673103929402 H 0.0 **** 0.06
17088 H 75.09381887276683 9.949923395514844 89.50747484623977 H 0.0 **** 0.06
17089 H 73.79255130220338 9.934550911778565 90.72215848634735 H 0.0 **** 0.06
17090 H 73.5645858450176 9.107273548318837 89.16284107294919 H 0.0 **** 0.06
17091 C 47.44223539900609 87.77533820854649 102.90123215620841 C 0.0 **** -0.24
17092 H 46.667952700717336 87.36537517405577 103.54988120762607 H 0.0 **** 0.06
17093 H 48.34470165967799 87.16948028867273 102.9864426796091 H 0.0 **** 0.06
17094 H 47.66232354457984 88.79939474819867 103.20049841743923 H 0.0 **** 0.06
17095 H 47.09374432154101 87.76570742986473 101.86803264172639 H 0.0 **** 0.06
17096 C 72.55197671163808 87.48552096093167 105.9285313772452 C 0.0 **** -0.24
17097 H 71.51860610280886 87.15356727072808 106.02937732088128 H 0.0 **** 0.06
17098 H 73.1756185968963 86.64407715464301 105.62659415483785 H 0.0 **** 0.06
17099 H 72.90422569845853 87.87414927733289 106.88369451004306 H 0.0 **** 0.06
17100 H 72.60952912186937 88.26970422276116 105.17365238233509 H 0.0 **** 0.06
17101 C 58.51572600160665 103.83702323025216 28.77559635285668 C 0.0 **** -0.24
17102 H 59.09658062054396 104.5729268725226 29.331967388239818 H 0.0 **** 0.06
17103 H 57.52712988563292 103.74115206608826 29.22385226925733 H 0.0 **** 0.06
17104 H 59.024348832725394 102.87352948817366 28.80762113174263 H 0.0 **** 0.06
17105 H 58.41612187207656 104.16040338086921 27.739546523553855 H 0.0 **** 0.06
17106 C 33.2077988887431 93.18780633654839 18.495463762528914 C 0.0 **** -0.24
17107 H 32.83145598163287 92.93035482061507 19.485729749018873 H 0.0 **** 0.06
17108 H 33.86829279614574 94.05156320822283 18.57075535614638 H 0.0 **** 0.06
17109 H 32.37069801954772 93.42636996534668 17.83961433096499 H 0.0 **** 0.06
17110 H 33.75943350965585 92.34114760146363 18.085496372862593 H 0.0 **** 0.06
17111 C 86.31369940995879 16.42147568957738 83.8760558943543 C 0.0 **** -0.24
17112 H 86.96161604330968 16.92824571565275 83.16062374338782 H 0.0 **** 0.06
17113 H 86.69762453271645 16.575609536512285 84.88483052828633 H 0.0 **** 0.06
17114 H 86.29102438048687 15.355412784168127 83.6536472720901 H 0.0 **** 0.06
17115 H 85.30463750512132 16.829520125202098 83.80430718209288 H 0.0 **** 0.06
17116 C 3.403834953527733 108.46999997605147 19.525823701365002 C 0.0 **** -0.24
17117 H 3.625437818536888 109.50752524034115 19.77526997476961 H 0.0 **** 0.06
17118 H 2.344395672090375 108.37315934754852 19.286158659509233 H 0.0 **** 0.06
17119 H 3.6445933188249544 107.83241349818348 20.377238954186073 H 0.0 **** 0.06
17120 H 4.000372026888028 108.1674655312633 18.665806066713387 H 0.0 **** 0.06
17121 C 26.925178161334145 36.449471746308774 113.04600436084769 C 0.0 **** -0.24
17122 H 26.88118012922729 35.3773438348412 112.85013456721367 H 0.0 **** 0.06
17123 H 26.322363995217074 36.682408138442 113.92370970907831 H 0.0 **** 0.06
17124 H 26.537172139694633 36.99174902725152 112.18316503558736 H 0.0 **** 0.06
17125 H 27.958815735671635 36.744087012658326 113.22548454162563 H 0.0 **** 0.06
17126 C 74.55095691724313 84.12983047232174 9.714287587166652 C 0.0 **** -0.24
17127 H 73.50370053109725 83.89593630764594 9.907465187912933 H 0.0 **** 0.06
17128 H 74.6598911348907 85.20230951157845 9.551456262568536 H 0.0 **** 0.06
17129 H 74.8855543367028 83.59154515471539 8.827691608676503 H 0.0 **** 0.06
17130 H 75.15453682859999 83.82855449916391 10.570697575295299 H 0.0 **** 0.06
17131 C 80.01404241117191 13.007473342425897 49.97297233727457 C 0.0 **** -0.24
17132 H 80.06431962320855 13.893909628822001 49.339966074164266 H 0.0 **** 0.06
17133 H 80.60170953723929 12.20725111282556 49.5214872530008 H 0.0 **** 0.06
17134 H 78.9770798630392 12.68715893551007 50.068372837373914 H 0.0 **** 0.06
17135 H 80.4154910495657 13.241076360703374 50.95876975688418 H 0.0 **** 0.06
17136 C 60.9758213194494 101.95383164909953 99.7150416303316 C 0.0 **** -0.24
17137 H 60.57163135572139 101.57047042866355 98.77749606650877 H 0.0 **** 0.06
17138 H 61.44423794584231 102.92198765801658 99.53846371212876 H 0.0 **** 0.06
17139 H 61.71735686281186 101.25619651983004 100.10340253012077 H 0.0 **** 0.06
17140 H 60.169138001266454 102.06719405863569 100.43859528864016 H 0.0 **** 0.06
17141 C 87.18449500496928 90.47077256100565 76.42730098671967 C 0.0 **** -0.24
17142 H 88.06512616986518 90.96733397616677 76.02070728650241 H 0.0 **** 0.06
17143 H 86.62325436596177 91.17372791555161 77.04333727704878 H 0.0 **** 0.06
17144 H 87.49421309925026 89.62070004778886 77.03569758764542 H 0.0 **** 0.06
17145 H 86.55415213360399 90.12063854265094 75.60949291891922 H 0.0 **** 0.06
17146 C 62.05882862070109 81.04540209946052 93.624917619943 C 0.0 **** -0.24
17147 H 61.26997705338189 81.38633731433876 94.29629412909676 H 0.0 **** 0.06
17148 H 62.77307471373922 81.85338032302238 93.46518754575601 H 0.0 **** 0.06
17149 H 61.62130324851566 80.75249039635685 92.67026308739605 H 0.0 **** 0.06
17150 H 62.56848596480765 80.19062496882472 94.06910157969727 H 0.0 **** 0.06
17151 C 111.76011438251228 48.29561675373455 60.689640391401205 C 0.0 **** -0.24
17152 H 111.52989385373641 48.0613589374631 61.728399111701144 H 0.0 **** 0.06
17153 H 110.93903357914067 47.966836363667625 60.05198313262026 H 0.0 **** 0.06
17154 H 112.67674326932595 47.78329685842476 60.39618713413139 H 0.0 **** 0.06
17155 H 111.89561651332863 49.37181195605436 60.581210521901305 H 0.0 **** 0.06
17156 C 42.22753013033681 40.04635939001949 77.0825435019072 C 0.0 **** -0.24
17157 H 43.03437933404879 40.52113915173172 76.52444629396732 H 0.0 **** 0.06
17158 H 42.3534404060523 40.24677918096393 78.14628992126467 H 0.0 **** 0.06
17159 H 42.250859841981345 38.96994357353468 76.90908817773774 H 0.0 **** 0.06
17160 H 41.27062361799924 40.44706498508836 76.74733767444283 H 0.0 **** 0.06
17161 C 12.161075906218258 28.527124166707154 21.2922274590843 C 0.0 **** -0.24
17162 H 12.106243250012568 27.76114272652336 20.519445012243665 H 0.0 **** 0.06
17163 H 11.714397351420757 29.449958285890943 20.922905932564362 H 0.0 **** 0.06
17164 H 13.205234732878438 28.70671145488768 21.551093831623234 H 0.0 **** 0.06
17165 H 11.62067887999882 28.189901064366325 22.17728771427602 H 0.0 **** 0.06
17166 C 110.76319396976403 94.46538455711581 111.79268075965408 C 0.0 **** -0.24
17167 H 111.0208855692157 94.3690034190453 110.73859176656812 H 0.0 **** 0.06
17168 H 111.10743330579544 93.58266306346346 112.33301963489143 H 0.0 **** 0.06
17169 H 109.68107389406298 94.55476123591717 111.89481298679054 H 0.0 **** 0.06
17170 H 111.24191595393262 95.35353498937937 112.20369410257416 H 0.0 **** 0.06
17171 C 104.06348878011369 88.94118843309298 11.60685773723506 C 0.0 **** -0.24
17172 H 104.95220086180504 89.25420246264622 11.057949661521235 H 0.0 **** 0.06
17173 H 104.15587323951405 87.88865239539723 11.876789268811933 H 0.0 **** 0.06
17174 H 103.18246928876354 89.07977985453425 10.980924844379189 H 0.0 **** 0.06
17175 H 103.96552328473066 89.54206668663693 12.511033083169949 H 0.0 **** 0.06
17176 C 105.24755238881585 85.68524919062767 105.39334316831744 C 0.0 **** -0.24
17177 H 104.69432804381887 85.17951752514008 104.60303678885515 H 0.0 **** 0.06
17178 H 105.41084495476088 84.99513082290065 106.22190953254528 H 0.0 **** 0.06
17179 H 104.6772736024987 86.5459319878656 105.7440927183307 H 0.0 **** 0.06
17180 H 106.20939265131511 86.02095287416148 105.00409596689516 H 0.0 **** 0.06
17181 C 25.40567958179321 84.28620590223397 95.04658979613805 C 0.0 **** -0.24
17182 H 24.417501689973726 83.82592698204002 95.00226301449482 H 0.0 **** 0.06
17183 H 25.82497292095742 84.1501527537306 96.04352590612268 H 0.0 **** 0.06
17184 H 25.319055699619298 85.35115140152595 94.83125204999908 H 0.0 **** 0.06
17185 H 26.057504090006205 83.81733072931581 94.30991903699089 H 0.0 **** 0.06
17186 C 35.674925442527936 105.45489963627946 103.81292983469928 C 0.0 **** -0.24
17187 H 35.88123127134679 105.15321077212255 104.84047047909223 H 0.0 **** 0.06
17188 H 36.14512046685431 106.41897022055576 103.61646209769603 H 0.0 **** 0.06
17189 H 34.59802296401517 105.53877917607133 103.66865506579882 H 0.0 **** 0.06
17190 H 36.07696251354227 104.7078074575144 103.12775503834752 H 0.0 **** 0.06
17191 C 29.880799342949047 82.0986232933677 42.567497834924254 C 0.0 **** -0.24
17192 H 29.971528605297465 82.96630443972347 41.91350652352641 H 0.0 **** 0.06
17193 H 30.874678558918617 81.73819819957396 42.83111264562781 H 0.0 **** 0.06
17194 H 29.33302788438897 81.31099685509045 42.04950070692521 H 0.0 **** 0.06
17195 H 29.342847355092886 82.38107893015624 43.47249365945637 H 0.0 **** 0.06
17196 C 4.049486504314075 39.975399483903686 4.944639820771698 C 0.0 **** -0.24
17197 H 4.283462321083007 40.59444581985781 5.810755238797183 H 0.0 **** 0.06
17198 H 4.039382871519734 38.926969274070586 5.240643044896544 H 0.0 **** 0.06
17199 H 4.805978539696667 40.128983155918036 4.174864632866393 H 0.0 **** 0.06
17200 H 3.0717652338770733 40.253526196693315 4.553562455235985 H 0.0 **** 0.06
17201 C 53.166275065526555 0.0343850403107524 21.198252089748337 C 0.0 **** -0.24
17202 H 52.8605594604932 0.26017976203260673 22.21926169220086 H 0.0 **** 0.06
17203 H 52.28383220098411 -0.023756337722858234 20.559568093880472 H 0.0 **** 0.06
17204 H 53.69186378844295 -0.9202236986562298 21.179341718728438 H 0.0 **** 0.06
17205 H 53.827683531414586 0.8211639901846581 20.834049193032143 H 0.0 **** 0.06
17206 C 64.69985102896487 82.83175039907493 23.97177527650357 C 0.0 **** -0.24
17207 H 65.18123228802665 82.92627336459208 22.998323959070404 H 0.0 **** 0.06
17208 H 63.827609544881625 83.48370212189144 24.009625798716435 H 0.0 **** 0.06
17209 H 65.40260938909663 83.117576944499 24.754534402070853 H 0.0 **** 0.06
17210 H 64.387953371527 81.79786793910804 24.123909911788914 H 0.0 **** 0.06
17211 C 20.103634255075065 81.13927902966529 72.82745541110177 C 0.0 **** -0.24
17212 H 19.300270960959608 81.74353197770333 73.24919084184978 H 0.0 **** 0.06
17213 H 19.687871233184467 80.21764970834883 72.41854154685183 H 0.0 **** 0.06
17214 H 20.825214639203523 80.89803290108574 73.60690580872165 H 0.0 **** 0.06
17215 H 20.59953319559122 81.6973147428424 72.03346779935146 H 0.0 **** 0.06
17216 C 43.32018603782432 62.598977617458125 84.85371342106538 C 0.0 **** -0.24
17217 H 42.52959118045259 62.38557062781751 85.57314805840576 H 0.0 **** 0.06
17218 H 44.29106458849699 62.44978663145533 85.32715497764295 H 0.0 **** 0.06
17219 H 43.23563685328724 63.6319468838735 84.51551684901608 H 0.0 **** 0.06
17220 H 43.224896612702764 61.92862607702161 83.99992910279096 H 0.0 **** 0.06
17221 C 102.45742382810462 84.47423426718814 44.44163777009095 C 0.0 **** -0.24
17222 H 101.56663230275774 83.86238865813834 44.299123284719116 H 0.0 **** 0.06
17223 H 102.96618763551209 84.16736346634536 45.35633102816362 H 0.0 **** 0.06
17224 H 102.1691503202509 85.52266941656623 44.520613169813686 H 0.0 **** 0.06
17225 H 103.12792968022373 84.34495239314373 43.59181303091259 H 0.0 **** 0.06
17226 C 25.84175400270422 8.461903776827626 48.36603251756121 C 0.0 **** -0.24
17227 H 24.795446371863363 8.164843199202437 48.43500570346389 H 0.0 **** 0.06
17228 H 25.99978277585771 9.023095619290416 47.445047398640625 H 0.0 **** 0.06
17229 H 26.472330364433617 7.573203785855924 48.36291739915019 H 0.0 **** 0.06
17230 H 26.09945649866225 9.086472502961556 49.22115956899029 H 0.0 **** 0.06
17231 C 76.57138315635135 25.529619237510758 103.56096352153406 C 0.0 **** -0.24
17232 H 76.32742023586007 26.27423683817416 102.80412694048036 H 0.0 **** 0.06
17233 H 77.64373862239734 25.335379991384663 103.54832154971004 H 0.0 **** 0.06
17234 H 76.03225961260392 24.605741030244957 103.34788861623306 H 0.0 **** 0.06
17235 H 76.28070561152322 25.900471216909402 104.54358975220075 H 0.0 **** 0.06
17236 C 102.64973184438017 22.87737204481249 6.300660857061413 C 0.0 **** -0.24
17237 H 102.78223909542018 23.929703523180848 6.553354930268901 H 0.0 **** 0.06
17238 H 103.51154358111492 22.30880638496032 6.650088367684413 H 0.0 **** 0.06
17239 H 102.5584014055207 22.772987596680622 5.218823211797103 H 0.0 **** 0.06
17240 H 101.74600658432217 22.50065045273783 6.779200755885769 H 0.0 **** 0.06
17241 C 116.24796219070463 69.46619723894565 112.07183385525325 C 0.0 **** -0.24
17242 H 115.40599657079875 69.37105197916756 111.38650750062939 H 0.0 **** 0.06
17243 H 116.30218002885505 68.58184744734078 112.70689357663751 H 0.0 **** 0.06
17244 H 116.11193812020312 70.35232524749065 112.69309359327501 H 0.0 **** 0.06
17245 H 117.17142535391476 69.5618655172436 111.50162137504812 H 0.0 **** 0.06
17246 C 24.485206240351005 94.52620133718455 30.56640154923315 C 0.0 **** -0.24
17247 H 24.408329274468457 94.36584824731796 29.49131748514037 H 0.0 **** 0.06
17248 H 23.80521407304238 93.84779096540785 31.08355539463946 H 0.0 **** 0.06
17249 H 24.21882976112969 95.55645634953896 30.800928955864777 H 0.0 **** 0.06
17250 H 25.507839020051186 94.33178957268694 30.89011630673076 H 0.0 **** 0.06
17251 C 87.83688516818478 65.68930317417988 80.40214158083842 C 0.0 **** -0.24
17252 H 87.89955928009857 65.67201622694637 81.49060248184352 H 0.0 **** 0.06
17253 H 88.63023949090422 66.32010604579347 80.00221712256058 H 0.0 **** 0.06
17254 H 86.86846179088678 66.08741648088574 80.10113517676544 H 0.0 **** 0.06
17255 H 87.94830497646888 64.67537234211846 80.01654863443508 H 0.0 **** 0.06
17256 C 107.34215020651294 48.44645541031315 40.05443501035147 C 0.0 **** -0.24
17257 H 106.38618020154897 48.657894776163005 39.575272497138684 H 0.0 **** 0.06
17258 H 107.17094191844592 48.137591567085906 41.08589506469285 H 0.0 **** 0.06
17259 H 107.96134976146521 49.34389268194906 40.04146310766842 H 0.0 **** 0.06
17260 H 107.85055039159707 47.64703760366103 39.51579379152878 H 0.0 **** 0.06
17261 C 105.24701696540046 87.5682655042713 31.108278448725144 C 0.0 **** -0.24
17262 H 105.32816700817827 88.43819451821449 31.75957186506568 H 0.0 **** 0.06
17263 H 106.17466125227472 86.99554920489382 31.149146582706834 H 0.0 **** 0.06
17264 H 105.06606488241798 87.89556399347998 30.085410474242167 H 0.0 **** 0.06
17265 H 104.41935654470367 86.94212208789207 31.441495518973568 H 0.0 **** 0.06
17266 C 115.93229603214361 4.194970663839392 91.80120468061997 C 0.0 **** -0.24
17267 H 115.23978074020145 4.25195642282314 92.64034596430696 H 0.0 **** 0.06
17268 H 116.92982332695534 4.481653923899422 92.13407247220832 H 0.0 **** 0.06
17269 H 115.60344646762394 4.873131819564097 91.01277746991155 H 0.0 **** 0.06
17270 H 115.95490581003602 3.1750068730667973 91.41752561485023 H 0.0 **** 0.06
17271 C 74.7547392597848 46.57015352631707 21.41224829821374 C 0.0 **** -0.24
17272 H 75.39381768378968 46.089677625095156 20.671410500480818 H 0.0 **** 0.06
17273 H 74.53115453845243 47.588771636192234 21.093342274592032 H 0.0 **** 0.06
17274 H 75.26820428409843 46.59409285224817 22.373676178758103 H 0.0 **** 0.06
17275 H 73.82578053279855 46.00807199173286 21.510564239023665 H 0.0 **** 0.06
17276 C 35.83836699115513 4.212122687133757 107.31125691163433 C 0.0 **** -0.24
17277 H 35.64109877467247 3.215992320117124 107.70668260123026 H 0.0 **** 0.06
17278 H 36.66916088562913 4.166025619203978 106.60667578094629 H 0.0 **** 0.06
17279 H 36.09337712534182 4.8849462287003576 108.13049639035552 H 0.0 **** 0.06
17280 H 34.949040187050315 4.582626524004127 106.80076719902539 H 0.0 **** 0.06
17281 C 115.68977109750546 3.80171650895484 109.70761554252688 C 0.0 **** -0.24
17282 H 116.0291657853 2.8235416666843633 110.04820354002685 H 0.0 **** 0.06
17283 H 116.20248865935565 4.580827902216015 110.2709076968136 H 0.0 **** 0.06
17284 H 114.61370494229362 3.8878529960167754 109.86371228639197 H 0.0 **** 0.06
17285 H 115.91220816993723 3.9132392985285804 108.64632416390333 H 0.0 **** 0.06
17286 C 17.12643803006563 25.850866342368846 3.3380697297137942 C 0.0 **** -0.24
17287 H 17.207110240758652 26.705300547537178 4.009635897450835 H 0.0 **** 0.06
17288 H 18.081530198928476 25.68989131937076 2.837977775938697 H 0.0 **** 0.06
17289 H 16.35443322593403 26.045842365672257 2.5943205489563184 H 0.0 **** 0.06
17290 H 16.862690492711522 24.96243336658293 3.9120767543208785 H 0.0 **** 0.06
17291 C 32.54644292662471 23.784459959244195 35.03582791678669 C 0.0 **** -0.24
17292 H 32.47146500808935 24.86167911586128 34.890414329468825 H 0.0 **** 0.06
17293 H 33.4202462627656 23.561059110013833 35.648915859979965 H 0.0 **** 0.06
17294 H 32.64626433875219 23.293375062441203 34.067751325492885 H 0.0 **** 0.06
17295 H 31.64902677003448 23.421486251005884 35.535576075180664 H 0.0 **** 0.06
17296 C 25.31528912380581 43.89650436623064 60.05941813882658 C 0.0 **** -0.24
17297 H 26.371684525335475 43.70029122721441 59.878106029449334 H 0.0 **** 0.06
17298 H 25.055151885890915 44.879151106680524 59.66580415056874 H 0.0 **** 0.06
17299 H 25.11939598173275 43.869749441215504 61.1316247662186 H 0.0 **** 0.06
17300 H 24.713474804624298 43.135261507798745 59.56146443655788 H 0.0 **** 0.06
17301 C 43.440224895689425 74.32608903465041 19.914245756415966 C 0.0 **** -0.24
17302 H 42.909910670900786 73.64934073542167 20.584085674907328 H 0.0 **** 0.06
17303 H 44.01878053342101 73.7462035815328 19.19580219872708 H 0.0 **** 0.06
17304 H 44.11155863967002 74.95970534793341 20.495363161765795 H 0.0 **** 0.06
17305 H 42.72088336867385 74.94941303966164 19.38393465334147 H 0.0 **** 0.06
17306 C 63.9315687992294 83.20083658545403 72.82571040209854 C 0.0 **** -0.24
17307 H 63.21427162185825 83.70029830888882 73.47701963433082 H 0.0 **** 0.06
17308 H 63.3988305187523 82.56026519876119 72.12219548058411 H 0.0 **** 0.06
17309 H 64.60910238467795 82.59555986913901 73.42816232341602 H 0.0 **** 0.06
17310 H 64.50456255808297 83.9485482791116 72.27550547857169 H 0.0 **** 0.06
17311 C 48.54718210834277 19.76267912403038 9.999474759986896 C 0.0 **** -0.24
17312 H 47.718434004997704 20.395835420804293 9.681564883626123 H 0.0 **** 0.06
17313 H 49.07635892200702 20.242662594389355 10.82253594739376 H 0.0 **** 0.06
17314 H 49.23204885728486 19.61512913441097 9.16424034915157 H 0.0 **** 0.06
17315 H 48.161916710003176 18.79811988147545 10.328166001956049 H 0.0 **** 0.06
17316 C 39.9070642906606 43.89213221451526 30.106343096307 C 0.0 **** -0.24
17317 H 39.31857897601978 43.0149876596507 29.83800300152859 H 0.0 **** 0.06
17318 H 39.62108629153116 44.23124912662024 31.10186821140354 H 0.0 **** 0.06
17319 H 39.723205303003986 44.68799989369262 29.383984786385952 H 0.0 **** 0.06
17320 H 40.96679403064862 43.63499397232434 30.100790592751252 H 0.0 **** 0.06
17321 C 56.97640136080901 13.049757647522853 77.37626712794088 C 0.0 **** -0.24
17322 H 56.18560448174418 13.084355630228487 76.62733842431828 H 0.0 **** 0.06
17323 H 56.64504441090122 13.565073736996453 78.27838625906861 H 0.0 **** 0.06
17324 H 57.86885655933753 13.53747964829094 76.98495536300516 H 0.0 **** 0.06
17325 H 57.204493677068115 12.010609525465242 77.61475418722796 H 0.0 **** 0.06
17326 C 57.66677533741921 48.26078368242981 35.1781788152863 C 0.0 **** -0.24
17327 H 56.65524906151239 48.09450261751648 34.80565733508237 H 0.0 **** 0.06
17328 H 58.37356946509021 48.191117154258514 34.35158848404282 H 0.0 **** 0.06
17329 H 57.90660993313372 47.506133507577175 35.92673168705201 H 0.0 **** 0.06
17330 H 57.72818839145128 49.252315797194406 35.62774473987069 H 0.0 **** 0.06
17331 C 76.0950017868725 49.31496319138914 105.13604596668034 C 0.0 **** -0.24
17332 H 75.60563044661407 49.29388878929851 106.10953736254768 H 0.0 **** 0.06
17333 H 76.71343645871133 50.20929006331252 105.05829648995925 H 0.0 **** 0.06
17334 H 75.33944025946926 49.32567770987082 104.3507269740891 H 0.0 **** 0.06
17335 H 76.72135155605056 48.42965174340057 105.02521010694008 H 0.0 **** 0.06
17336 C 112.57875044276217 5.986477210019572 29.371976528805902 C 0.0 **** -0.24
17337 H 111.6779024383634 6.459358314335844 29.761684414734233 H 0.0 **** 0.06
17338 H 112.34877933264448 5.48652954489539 28.430003756053992 H 0.0 **** 0.06
17339 H 112.94494178458669 5.2539808980450715 30.091942549792364 H 0.0 **** 0.06
17340 H 113.34380915746314 6.744767516636401 29.203833828747662 H 0.0 **** 0.06
17341 C 113.8798589053875 101.10429316310456 20.080845774199474 C 0.0 **** -0.24
17342 H 114.09938406442453 100.41296089809052 19.267638340268007 H 0.0 **** 0.06
17343 H 114.73210286765205 101.76651216442875 20.23313229693227 H 0.0 **** 0.06
17344 H 113.68954495404031 100.54191694682143 20.994788626745418 H 0.0 **** 0.06
17345 H 113.00052029980537 101.69649721457623 19.82792299473857 H 0.0 **** 0.06
17346 C 70.91560005398637 35.74632067381421 56.41785736527434 C 0.0 **** -0.24
17347 H 71.96313409650892 35.85363419294961 56.13445788578955 H 0.0 **** 0.06
17348 H 70.34094615252545 35.397934889032854 55.559697589924134 H 0.0 **** 0.06
17349 H 70.52806467262727 36.710669657024226 56.747671525201135 H 0.0 **** 0.06
17350 H 70.83142210242275 35.02359946934908 57.23017698612926 H 0.0 **** 0.06
17351 C 96.097260646563 71.06536054724853 8.207252287644788 C 0.0 **** -0.24
17352 H 95.9331073689086 72.09573272290135 7.891053181160981 H 0.0 **** 0.06
17353 H 97.16552945823418 70.84816541186547 8.198534231175042 H 0.0 **** 0.06
17354 H 95.5839393284947 70.38978205748856 7.523060144084861 H 0.0 **** 0.06
17355 H 95.70600033374484 70.92733784229034 9.21558512473706 H 0.0 **** 0.06
17356 C 78.40548424083104 56.746053999911275 62.447971930420515 C 0.0 **** -0.24
17357 H 78.7659138856823 55.931181517246905 63.07607008567013 H 0.0 **** 0.06
17358 H 79.17216687219764 57.00662864576385 61.71777085675675 H 0.0 **** 0.06
17359 H 78.18633993162425 57.61325727153166 63.07033210091044 H 0.0 **** 0.06
17360 H 77.49979472284951 56.431848964192646 61.92974454189815 H 0.0 **** 0.06
17361 C 110.29870707919872 43.21904855453755 14.125499534490501 C 0.0 **** -0.24
17362 H 109.85703206456026 42.22344322441859 14.093701298422928 H 0.0 **** 0.06
17363 H 110.83665440670632 43.40752023353241 13.196192217930133 H 0.0 **** 0.06
17364 H 110.99152790359597 43.28204961074084 14.965424064010307 H 0.0 **** 0.06
17365 H 109.51144828645317 43.961841455032015 14.248366043706937 H 0.0 **** 0.06
17366 C 112.9344853540128 9.426703106920115 112.1369894502849 C 0.0 **** -0.24
17367 H 112.53382456163887 10.344735749582952 111.7100259657766 H 0.0 **** 0.06
17368 H 113.60339842589057 9.670509232359535 112.96227960181595 H 0.0 **** 0.06
17369 H 113.48607656842543 8.880498194944636 111.37110672198884 H 0.0 **** 0.06
17370 H 112.11465117867365 8.808937228424924 112.50387120892984 H 0.0 **** 0.06
17371 C 25.570910951523814 45.53185442093263 7.795969828618638 C 0.0 **** -0.24
17372 H 25.285253991357223 46.089567416449825 6.9039343491662635 H 0.0 **** 0.06
17373 H 26.459700063560746 44.93716914520155 7.583917172042504 H 0.0 **** 0.06
17374 H 24.753931927024155 44.873527416940476 8.08947405391983 H 0.0 **** 0.06
17375 H 25.78559367814779 46.22896833290832 8.606647047207844 H 0.0 **** 0.06
17376 C 67.72627685524333 113.12878800130943 59.809137048701245 C 0.0 **** -0.24
17377 H 68.80639417662337 113.005486591069 59.88622324684479 H 0.0 **** 0.06
17378 H 67.42989949801336 114.05465859684648 60.301864207894425 H 0.0 **** 0.06
17379 H 67.22948444383098 112.28605105223946 60.28833389228009 H 0.0 **** 0.06
17380 H 67.44074165832046 113.16968879607438 58.75758353516866 H 0.0 **** 0.06
17381 C 90.01566428678208 92.94772810610178 36.34817853808232 C 0.0 **** -0.24
17382 H 89.28418460995198 93.00010461477214 37.15412401114446 H 0.0 **** 0.06
17383 H 89.91231588725253 93.82303159983203 35.706211313705865 H 0.0 **** 0.06
17384 H 89.84738915478846 92.04469374936883 35.761790126803874 H 0.0 **** 0.06
17385 H 91.02047296187322 92.92482764553941 36.77037408368386 H 0.0 **** 0.06
17386 C 23.169338147875067 79.84526346105267 39.88019602325619 C 0.0 **** -0.24
17387 H 23.584264619254384 79.80444452726576 40.88643292435256 H 0.0 **** 0.06
17388 H 22.335117170366715 79.14745147431182 39.80206275546425 H 0.0 **** 0.06
17389 H 23.939714275463956 79.57338540404953 39.15810742034972 H 0.0 **** 0.06
17390 H 22.81782236900375 80.85556618011637 39.67285092485736 H 0.0 **** 0.06
17391 C 22.69260160398926 71.35879471351723 70.37570505201833 C 0.0 **** -0.24
17392 H 21.701270124132492 71.26550811888126 69.93055388610702 H 0.0 **** 0.06
17393 H 22.685460717150534 72.16286015109787 71.11224683700456 H 0.0 **** 0.06
17394 H 23.420260197538624 71.58553972204004 69.59626829629852 H 0.0 **** 0.06
17395 H 22.961617997849544 70.4218427262868 70.86255006866602 H 0.0 **** 0.06
17396 C 59.47950025701135 70.3719913063832 112.4555708570584 C 0.0 **** -0.24
17397 H 60.046524392096615 69.46112668216219 112.64810199982071 H 0.0 **** 0.06
17398 H 59.496627033048526 71.00430845428292 113.3437289015981 H 0.0 **** 0.06
17399 H 58.44940177881438 70.11344763046634 112.21217364022075 H 0.0 **** 0.06
17400 H 59.92730620646273 70.90789291824353 111.61864178999656 H 0.0 **** 0.06
17401 C 65.33801210911574 73.12998382997063 112.1679332727952 C 0.0 **** -0.24
17402 H 64.26820463589092 73.23221804377954 111.98202151325737 H 0.0 **** 0.06
17403 H 65.61986684628965 72.08039825110615 112.09220408526002 H 0.0 **** 0.06
17404 H 65.56890390788871 73.49727012188907 113.16903409510464 H 0.0 **** 0.06
17405 H 65.89158220607567 73.7104517804629 111.43105270495793 H 0.0 **** 0.06
17406 C 40.29297928513884 26.94813469498648 57.99380068672008 C 0.0 **** -0.24
17407 H 40.14017357887465 26.114701144020934 57.30835420459468 H 0.0 **** 0.06
17408 H 41.355297163586584 27.048435107486952 58.21219118906515 H 0.0 **** 0.06
17409 H 39.746357638923826 26.76189519577406 58.91845068035832 H 0.0 **** 0.06
17410 H 39.92715424242098 27.866591768557484 57.53496128442313 H 0.0 **** 0.06
17411 C 56.57966513599329 110.35369552686939 8.002801556054237 C 0.0 **** -0.24
17412 H 56.74708374375309 111.22607043799962 7.371957734430907 H 0.0 **** 0.06
17413 H 56.36919842625901 109.48713925374375 7.375249957281284 H 0.0 **** 0.06
17414 H 55.732511401700755 110.53960455356645 8.662231074749826 H 0.0 **** 0.06
17415 H 57.47110894748112 110.16186822161697 8.60056423563833 H 0.0 **** 0.06
17416 C 18.43660823756801 39.40429440359723 60.661511939654645 C 0.0 **** -0.24
17417 H 17.922028160150916 38.93252799604279 61.498553611056934 H 0.0 **** 0.06
17418 H 19.221124000698182 40.05925122558125 61.039704360109795 H 0.0 **** 0.06
17419 H 17.723113516210617 39.990142336321995 60.08042885192958 H 0.0 **** 0.06
17420 H 18.87829438233561 38.6366182045289 60.026562699557246 H 0.0 **** 0.06
17421 C 21.13210790660304 6.937076971037584 56.85953239635196 C 0.0 **** -0.24
17422 H 21.867517825371067 7.647328076541555 56.48029811274568 H 0.0 **** 0.06
17423 H 20.349412023440806 6.792812163536212 56.114442594365876 H 0.0 **** 0.06
17424 H 20.692904224070844 7.325423529373666 57.778180323226714 H 0.0 **** 0.06
17425 H 21.620230461614227 5.984210025259642 57.06477842989698 H 0.0 **** 0.06
17426 C 85.29975283024976 43.209253737262145 95.82681958581503 C 0.0 **** -0.24
17427 H 86.04047604113163 42.491181907230214 96.1774032207251 H 0.0 **** 0.06
17428 H 85.32828174340412 43.25706061875866 94.73819725735828 H 0.0 **** 0.06
17429 H 85.52366661039767 44.192498899070415 96.24039730227634 H 0.0 **** 0.06
17430 H 84.30796184745654 42.8959735532996 96.15142100810024 H 0.0 **** 0.06
17431 C 86.56973914730042 92.57527094005923 40.57678880986336 C 0.0 **** -0.24
17432 H 86.05504448421681 91.80507088016188 40.00243680038318 H 0.0 **** 0.06
17433 H 86.0653762835368 92.71296991187106 41.533796189224034 H 0.0 **** 0.06
17434 H 86.55591022945569 93.51323912126338 40.02064990194938 H 0.0 **** 0.06
17435 H 87.60183225371566 92.27070194408972 40.74952124737797 H 0.0 **** 0.06
17436 C 20.539074327515863 72.7430334112808 65.73337935236924 C 0.0 **** -0.24
17437 H 20.96002491526164 71.77136846775312 65.99272050562155 H 0.0 **** 0.06
17438 H 19.46361722377543 72.64335422117182 65.58249160435122 H 0.0 **** 0.06
17439 H 21.002516460024964 73.10708363931832 64.816072519898 H 0.0 **** 0.06
17440 H 20.729199422619985 73.44957171192965 66.54149324286277 H 0.0 **** 0.06
17441 C 89.48640243327725 24.4898975680656 101.99872530643995 C 0.0 **** -0.24
17442 H 88.49836159764672 24.02945409666728 101.99902467858522 H 0.0 **** 0.06
17443 H 89.47961534573474 25.364459374849304 101.34855800570887 H 0.0 **** 0.06
17444 H 90.22151216932963 23.771693815082045 101.63542375734608 H 0.0 **** 0.06
17445 H 89.74548252956907 24.793202649480207 103.01288676780612 H 0.0 **** 0.06
17446 C 105.97517978894481 46.879036630880826 75.9410916556738 C 0.0 **** -0.24
17447 H 105.09355746467855 46.238697732316076 75.92851788385195 H 0.0 **** 0.06
17448 H 105.69117090326625 47.88081022805711 76.26541040798784 H 0.0 **** 0.06
17449 H 106.40379039450491 46.92849113841516 74.94033537144566 H 0.0 **** 0.06
17450 H 106.71253875687918 46.468469028703566 76.63143794895885 H 0.0 **** 0.06
17451 C 6.84753367622568 71.84183530452367 59.15395270503717 C 0.0 **** -0.24
17452 H 6.8285200918866735 72.38139157459699 60.10084260316623 H 0.0 **** 0.06
17453 H 7.644413389263377 72.23998905000232 58.52575744297414 H 0.0 **** 0.06
17454 H 5.889416488173936 71.96231203617955 58.647755299558355 H 0.0 **** 0.06
17455 H 7.027706242831471 70.78383408347156 59.34285530838085 H 0.0 **** 0.06
17456 C 84.85100266423967 20.205679238395504 35.801145289255544 C 0.0 **** -0.24
17457 H 84.07069262143301 20.1613951771524 35.04073409756177 H 0.0 **** 0.06
17458 H 84.796318574998 19.3159840424629 36.42868181278283 H 0.0 **** 0.06
17459 H 84.70956896772651 21.094857851950422 36.41524287756232 H 0.0 **** 0.06
17460 H 85.82723257056028 20.249292076111175 35.31778922771866 H 0.0 **** 0.06
17461 C 109.57900040930824 99.00194999832735 9.4441698117123 C 0.0 **** -0.24
17462 H 109.22170427314349 98.03336976125848 9.095735156149374 H 0.0 **** 0.06
17463 H 109.47138673230698 99.73762223940682 8.646563601944138 H 0.0 **** 0.06
17464 H 110.62938818782595 98.92174907019785 9.725529613422395 H 0.0 **** 0.06
17465 H 108.99435339913953 99.31540878820638 10.308418249069803 H 0.0 **** 0.06
17466 C 81.21341825023529 30.222876682503625 101.44429089547751 C 0.0 **** -0.24
17467 H 81.57404202418843 29.48407538776553 102.15952377159536 H 0.0 **** 0.06
17468 H 80.3259553788368 30.71238425784219 101.84555758714973 H 0.0 **** 0.06
17469 H 80.96275105666274 29.72880456063689 100.50607257916971 H 0.0 **** 0.06
17470 H 81.99028592122141 30.96718085072132 101.268180370898 H 0.0 **** 0.06
17471 C 19.371690690019648 106.85218323338447 12.577254457591323 C 0.0 **** -0.24
17472 H 18.516093221021436 106.71852781499732 13.238931224342167 H 0.0 **** 0.06
17473 H 19.09851419924979 107.52141511718781 11.760880581343912 H 0.0 **** 0.06
17474 H 19.67044227014739 105.88573444237889 12.170315595040108 H 0.0 **** 0.06
17475 H 20.200651981515307 107.28321193417523 13.137968608156797 H 0.0 **** 0.06
17476 C 80.74733170965266 113.12480042937605 95.67011495633909 C 0.0 **** -0.24
17477 H 79.92982037711602 113.60697121338914 96.20646329798075 H 0.0 **** 0.06
17478 H 80.44767075867699 112.9433160199395 94.63769124506322 H 0.0 **** 0.06
17479 H 80.98701312635745 112.17560418471639 96.15112885544741 H 0.0 **** 0.06
17480 H 81.62435148205876 113.77131807549483 95.68652158932395 H 0.0 **** 0.06
17481 C 114.04203404592359 55.02205471707495 46.44659972129455 C 0.0 **** -0.24
17482 H 114.42328016167554 55.66960686537263 45.65701338612102 H 0.0 **** 0.06
17483 H 113.45539770009017 55.61423071617611 47.14882428603874 H 0.0 **** 0.06
17484 H 114.87750920474353 54.55805353005161 46.97100808825434 H 0.0 **** 0.06
17485 H 113.41225131322906 54.24771265938307 46.0081421129615 H 0.0 **** 0.06
17486 C 86.52722113959223 97.3256596386837 99.13547439388677 C 0.0 **** -0.24
17487 H 87.21431319286111 98.02715107368277 99.60759215772839 H 0.0 **** 0.06
17488 H 86.15958297565132 96.61912028656215 99.88041892805813 H 0.0 **** 0.06
17489 H 87.04665769863618 96.78429419946423 98.34495869485812 H 0.0 **** 0.06
17490 H 85.68612638891597 97.87305293652295 98.70850221962962 H 0.0 **** 0.06
17491 C 82.38110469414667 27.13288866059193 68.00342807047048 C 0.0 **** -0.24
17492 H 82.38801633928756 26.435452385284236 68.84109019726867 H 0.0 **** 0.06
17493 H 83.28922861796318 27.003586435915153 67.41559240246423 H 0.0 **** 0.06
17494 H 82.33469940047226 28.154514358803553 68.38176984680206 H 0.0 **** 0.06
17495 H 81.5108080608453 26.93886685010574 67.37594873825154 H 0.0 **** 0.06
17496 C 114.60541473356804 101.09272524442957 30.87434897082136 C 0.0 **** -0.24
17497 H 114.16865312006259 101.63166920574608 30.03366076608893 H 0.0 **** 0.06
17498 H 115.34348269057833 100.38047059718463 30.505473687557185 H 0.0 **** 0.06
17499 H 113.82093458164306 100.55991492720091 31.41116736250379 H 0.0 **** 0.06
17500 H 115.08931725264449 101.80110863926694 31.547686446206683 H 0.0 **** 0.06
17501 C 39.49200561007911 53.71434351865594 17.993546478662665 C 0.0 **** -0.24
17502 H 40.2948250128511 54.10289919517555 17.36709340898932 H 0.0 **** 0.06
17503 H 39.64051987743162 54.046328003474514 19.022079365042487 H 0.0 **** 0.06
17504 H 39.49881239118243 52.6255526638667 17.95860326710232 H 0.0 **** 0.06
17505 H 38.534506875743034 54.084678370381596 17.626904619882055 H 0.0 **** 0.06
17506 C 67.35920392494012 103.8815241245866 65.70568491727147 C 0.0 **** -0.24
17507 H 68.04591200717527 103.28348371622351 66.30575550881696 H 0.0 **** 0.06
17508 H 66.36316688827583 103.44078870192439 65.74706693064994 H 0.0 **** 0.06
17509 H 67.7055760622975 103.9040439246431 64.67283685622687 H 0.0 **** 0.06
17510 H 67.32435843088626 104.89656362077756 66.09946593482363 H 0.0 **** 0.06
17511 C 24.988928057358436 62.22101010187595 76.52537390868753 C 0.0 **** -0.24
17512 H 25.023064341469563 62.386003092956884 75.44838040642549 H 0.0 **** 0.06
17513 H 24.62901582227019 63.12318557652 77.01975994009695 H 0.0 **** 0.06
17514 H 25.988341208637138 61.98062897675868 76.88763516517133 H 0.0 **** 0.06
17515 H 24.314883687830132 61.39242880355124 76.74357154368147 H 0.0 **** 0.06
17516 C 100.592468544225 60.737862300376435 22.879979460249956 C 0.0 **** -0.24
17517 H 101.33978867011186 61.23369273992566 22.261469396022875 H 0.0 **** 0.06
17518 H 100.6460132771958 61.12798202438739 23.896721595564927 H 0.0 **** 0.06
17519 H 100.78491751373338 59.664743500384844 22.892203995551412 H 0.0 **** 0.06
17520 H 99.59958556885792 60.924897950134664 22.470863300180923 H 0.0 **** 0.06
17521 C 48.11782932294321 37.282446068171254 116.56174437668768 C 0.0 **** -0.24
17522 H 48.69228623273776 36.37877482426606 116.35688214161169 H 0.0 **** 0.06
17523 H 47.33753301747049 37.060492393267964 117.2899732053558 H 0.0 **** 0.06
17524 H 47.66117835816394 37.639634589144606 115.63835645157954 H 0.0 **** 0.06
17525 H 48.77989233563653 38.050839377473125 116.95957121338343 H 0.0 **** 0.06
17526 C 67.54801921966498 36.675491685286744 15.25587558131414 C 0.0 **** -0.24
17527 H 66.8010292621237 36.91308901304734 16.01428679388397 H 0.0 **** 0.06
17528 H 67.9937528687091 35.7056344441439 15.476366852064391 H 0.0 **** 0.06
17529 H 68.32386352749214 37.44196815078928 15.259112900721266 H 0.0 **** 0.06
17530 H 67.07299788726112 36.64394524901434 14.276119779101823 H 0.0 **** 0.06
17531 C 93.56672191340124 77.72173978813453 4.762725171471422 C 0.0 **** -0.24
17532 H 93.69932210245355 76.85990673041684 4.109327981959371 H 0.0 **** 0.06
17533 H 93.96497487244397 77.49213288674397 5.751734926638246 H 0.0 **** 0.06
17534 H 92.50478115871988 77.95608715055215 4.843454184774657 H 0.0 **** 0.06
17535 H 94.0978127738801 78.57822046440347 4.3471745418541445 H 0.0 **** 0.06
17536 C 34.80046809173382 57.699990093343814 66.32025929398307 C 0.0 **** -0.24
17537 H 35.46008323020479 57.72598931516495 65.45286383792455 H 0.0 **** 0.06
17538 H 34.052887489479076 58.489259295484004 66.2315833283385 H 0.0 **** 0.06
17539 H 35.38574241002806 57.853675547236065 67.22566229386126 H 0.0 **** 0.06
17540 H 34.30217314444212 56.731868999154784 66.36884578384584 H 0.0 **** 0.06
17541 C 44.58221463148578 105.42305381707743 8.230644301347184 C 0.0 **** -0.24
17542 H 44.24424918004709 104.39130639128575 8.133517726995137 H 0.0 **** 0.06
17543 H 45.29331892449537 105.49640747504492 9.052909974063994 H 0.0 **** 0.06
17544 H 43.72608861395213 106.06756992841389 8.43114670984852 H 0.0 **** 0.06
17545 H 45.062953244522035 105.7363618805447 7.304215471894622 H 0.0 **** 0.06
17546 C 0.07665694045515181 87.5505532145146 81.03935931637491 C 0.0 **** -0.24
17547 H 0.05343702086265978 88.38368092762002 80.33685094094821 H 0.0 **** 0.06
17548 H 0.9077069020818413 87.68231868780325 81.73224010401353 H 0.0 **** 0.06
17549 H 0.20452874820195177 86.61775104900795 80.49105754888006 H 0.0 **** 0.06
17550 H -0.8607331014550823 87.51913083408618 81.59598359789737 H 0.0 **** 0.06
17551 C 10.536772282304401 85.43737026371764 47.46376826722485 C 0.0 **** -0.24
17552 H 9.517940724230733 85.1273683723926 47.695481520930635 H 0.0 **** 0.06
17553 H 11.001431220410232 84.6991937007943 46.810534492029525 H 0.0 **** 0.06
17554 H 11.110981895437892 85.5186601103095 48.38664975603157 H 0.0 **** 0.06
17555 H 10.516675157988502 86.40565710421254 46.96261088103161 H 0.0 **** 0.06
17556 C 2.316703903843944 66.65120820014667 111.50869434635146 C 0.0 **** -0.24
17557 H 2.190303856971866 65.85418744397725 112.24170930696127 H 0.0 **** 0.06
17558 H 3.3490370825606703 66.66085106137487 111.15652352296203 H 0.0 **** 0.06
17559 H 2.08153891243866 67.61012491764333 111.9707799825614 H 0.0 **** 0.06
17560 H 1.6463684687998636 66.4792506239732 110.66704423207409 H 0.0 **** 0.06
17561 C 57.154033510431155 115.63728573884619 63.03121255222601 C 0.0 **** -0.24
17562 H 56.52348559311377 115.5428846017751 62.14701759284168 H 0.0 **** 0.06
17563 H 56.52843757103734 115.64352982797985 63.92406737024635 H 0.0 **** 0.06
17564 H 57.71790210985302 116.5692454281864 62.97682152521938 H 0.0 **** 0.06
17565 H 57.84480769765201 114.7960799195949 63.07688186744585 H 0.0 **** 0.06
17566 C 2.4502609777220954 73.9229006356855 78.2597072491759 C 0.0 **** -0.24
17567 H 2.044919722356866 74.83451125552062 77.82100747505746 H 0.0 **** 0.06
17568 H 3.359241901743829 73.63827875664725 77.73040488641942 H 0.0 **** 0.06
17569 H 1.715094566302696 73.12247031152418 78.17511043307229 H 0.0 **** 0.06
17570 H 2.680072112288528 74.09583977195706 79.31063151300862 H 0.0 **** 0.06
17571 C 81.16250522668167 95.30199231720019 2.641287601852028 C 0.0 **** -0.24
17572 H 81.5976618243011 96.0375927800929 1.9638647402273648 H 0.0 **** 0.06
17573 H 80.2128079074952 94.95265446995876 2.23674834871035 H 0.0 **** 0.06
17574 H 80.99662369453654 95.76077956843841 3.615772857201037 H 0.0 **** 0.06
17575 H 81.84509552169436 94.4585979395502 2.7475156719572453 H 0.0 **** 0.06
17576 C 106.5891186459304 64.02945394832216 116.29468277845042 C 0.0 **** -0.24
17577 H 106.26862007363448 63.27148156508639 117.008812630528 H 0.0 **** 0.06
17578 H 105.76868623800911 64.25520044155348 115.6126335006043 H 0.0 **** 0.06
17579 H 107.44192910646672 63.65590934047111 115.72657469481449 H 0.0 **** 0.06
17580 H 106.87708192044565 64.93416600519171 116.82934824865305 H 0.0 **** 0.06
17581 C 51.24692175137003 97.93803472700029 22.748058395046684 C 0.0 **** -0.24
17582 H 51.02072403660187 98.58493987046512 21.900538315550165 H 0.0 **** 0.06
17583 H 52.08809044884276 98.34967570703728 23.305632497369743 H 0.0 **** 0.06
17584 H 51.50362698392738 96.94232653079939 22.386122502827476 H 0.0 **** 0.06
17585 H 50.37546921785826 97.87374042736528 23.39902970403574 H 0.0 **** 0.06
17586 C 87.8005682901944 15.231839198283328 2.52752881898175 C 0.0 **** -0.24
17587 H 86.91875539241681 15.869930941231523 2.4703982551611716 H 0.0 **** 0.06
17588 H 88.61147095998967 15.680839635673486 1.9553135228675842 H 0.0 **** 0.06
17589 H 87.56445434476319 14.249499562523187 2.1166357726993397 H 0.0 **** 0.06
17590 H 88.10428459759777 15.126003710920198 3.5687090073208765 H 0.0 **** 0.06
17591 C 116.24634662756552 5.319035383676862 116.17203838720972 C 0.0 **** -0.24
17592 H 115.73576924054234 4.93638828639601 115.28891278278992 H 0.0 **** 0.06
17593 H 116.83559212529917 6.1956102091337755 115.89947208778207 H 0.0 **** 0.06
17594 H 116.90513283816477 4.548545319393099 116.57302937825094 H 0.0 **** 0.06
17595 H 115.51010171192928 5.5954695668254715 116.92601747535909 H 0.0 **** 0.06
17596 C 57.22644204616525 75.48829440217446 87.29462095457197 C 0.0 **** -0.24
17597 H 57.17503222030401 76.4425406420558 87.81853896961869 H 0.0 **** 0.06
17598 H 58.26538156492973 75.16167102250108 87.23806233316478 H 0.0 **** 0.06
17599 H 56.826806558269105 75.6036128958225 86.28766861171238 H 0.0 **** 0.06
17600 H 56.64099710660225 74.74510273252838 87.83619860056695 H 0.0 **** 0.06
17601 C 19.807355779591305 90.72371617493675 40.20819043557962 C 0.0 **** -0.24
17602 H 18.771409533850033 90.75191836621778 40.54551958992625 H 0.0 **** 0.06
17603 H 20.172573812319328 89.6968671273375 40.24293003789733 H 0.0 **** 0.06
17604 H 20.41801984660401 91.34918614873555 40.85867842577348 H 0.0 **** 0.06
17605 H 19.86642246801506 91.0968231189496 39.18561803501061 H 0.0 **** 0.06
17606 C 47.93545472998979 20.51117924970856 53.96230500779751 C 0.0 **** -0.24
17607 H 47.32643137475789 19.63745830050732 54.191959442217296 H 0.0 **** 0.06
17608 H 48.14569702755691 21.0589581191075 54.88092595971949 H 0.0 **** 0.06
17609 H 47.396464462617786 21.156825041519255 53.26929711391426 H 0.0 **** 0.06
17610 H 48.87228242449967 20.190772252629927 53.506253252858926 H 0.0 **** 0.06
17611 C 47.49237393552255 19.90246356905971 27.888977844221813 C 0.0 **** -0.24
17612 H 48.008695015412286 19.239015584361887 28.582017683285528 H 0.0 **** 0.06
17613 H 48.219066969796984 20.37037767134198 27.225064766369428 H 0.0 **** 0.06
17614 H 46.962981004020406 20.672072104150374 28.450366986793938 H 0.0 **** 0.06
17615 H 46.77848095510302 19.326709744269497 27.298788561222636 H 0.0 **** 0.06
17616 C 101.01302926537761 58.2963240955863 109.04113759256326 C 0.0 **** -0.24
17617 H 100.59712400658287 57.294044357673755 109.1436661502224 H 0.0 **** 0.06
17618 H 100.30377532333083 59.025141224573076 109.43404525585854 H 0.0 **** 0.06
17619 H 101.20457656942475 58.505292860260965 107.989037025658 H 0.0 **** 0.06
17620 H 101.94662784587666 58.360156951618734 109.59993810505767 H 0.0 **** 0.06
17621 C 31.71597393053068 48.03520983622175 111.94320675655602 C 0.0 **** -0.24
17622 H 31.506369320776685 48.4905781174476 112.9106660854626 H 0.0 **** 0.06
17623 H 32.780692815983635 48.11582965727354 111.72601546301976 H 0.0 **** 0.06
17624 H 31.146588124644147 48.549322839046994 111.1694506335398 H 0.0 **** 0.06
17625 H 31.428461980346 46.98404794589541 111.96799648961085 H 0.0 **** 0.06
17626 C 65.00709536248112 57.513474448302276 28.392284017506938 C 0.0 **** -0.24
17627 H 65.05125734896092 56.97045266753736 29.33643709740747 H 0.0 **** 0.06
17628 H 64.34864644571996 58.375766521974356 28.500844666782797 H 0.0 **** 0.06
17629 H 64.62188766254059 56.85627105096373 27.612983267362125 H 0.0 **** 0.06
17630 H 66.00685048890341 57.85230467504718 28.120639525253182 H 0.0 **** 0.06
17631 C 91.6797808690813 90.88263840253268 67.5122394324394 C 0.0 **** -0.24
17632 H 91.59247086026119 91.94504848076821 67.28246603716241 H 0.0 **** 0.06
17633 H 91.88699385944221 90.75811736471866 68.57559464817729 H 0.0 **** 0.06
17634 H 92.49191701887324 90.45031364183927 66.92962720005886 H 0.0 **** 0.06
17635 H 90.74545609271703 90.3801066119824 67.26287633837458 H 0.0 **** 0.06
17636 C 25.346220083068246 36.75201435017027 2.45913346808368 C 0.0 **** -0.24
17637 H 26.139941872247967 36.332546894714085 1.8428943903811916 H 0.0 **** 0.06
17638 H 25.771035625469267 37.474319827125385 3.1566609263676604 H 0.0 **** 0.06
17639 H 24.857151373891917 35.95261784254939 3.0165085951721924 H 0.0 **** 0.06
17640 H 24.615110281406245 37.248814643150695 1.8209681915229616 H 0.0 **** 0.06
17641 C 44.96061175737127 102.45186024669826 76.28877748360523 C 0.0 **** -0.24
17642 H 44.41650927374016 101.76827211059992 76.94025479944841 H 0.0 **** 0.06
17643 H 44.805725567181696 102.16287504657586 75.24913918023233 H 0.0 **** 0.06
17644 H 46.02402996030031 102.40820055376076 76.52412302751668 H 0.0 **** 0.06
17645 H 44.59616758082856 103.46768413700121 76.44250531359998 H 0.0 **** 0.06
17646 C 77.64619029819517 89.47551766572036 38.10766767613501 C 0.0 **** -0.24
17647 H 77.52543816456156 89.06753869645135 39.11091989549567 H 0.0 **** 0.06
17648 H 77.7052182756035 88.6593863097583 37.388219819608764 H 0.0 **** 0.06
17649 H 78.56174004601098 90.0662731653234 38.06321964030886 H 0.0 **** 0.06
17650 H 76.79283091007065 90.1106561733003 37.86908682654331 H 0.0 **** 0.06
17651 C 108.98556060877337 67.10613673534311 8.443873732788973 C 0.0 **** -0.24
17652 H 107.99315486464377 67.03056987598521 8.885759829987421 H 0.0 **** 0.06
17653 H 109.29182552020404 68.15162386919351 8.414473065473146 H 0.0 **** 0.06
17654 H 108.96355265083338 66.7055899753581 7.430094693218848 H 0.0 **** 0.06
17655 H 109.69536486020286 66.53582998805936 9.043988861927346 H 0.0 **** 0.06
17656 C 52.09811190670365 66.77153959483638 79.14430234281721 C 0.0 **** -0.24
17657 H 52.993404595476704 67.15695575593026 79.63181165512785 H 0.0 **** 0.06
17658 H 51.7994812173751 67.4500780321352 78.34488424296634 H 0.0 **** 0.06
17659 H 51.292534924307574 66.69365913724837 79.87489892438708 H 0.0 **** 0.06
17660 H 52.3074637530068 65.7872114845182 78.72727613725982 H 0.0 **** 0.06
17661 C 19.23552016981688 60.07737330692612 85.79879782832296 C 0.0 **** -0.24
17662 H 20.045342459560317 59.70231943203311 85.17166107090847 H 0.0 **** 0.06
17663 H 18.29931880654945 59.60015926399058 85.50620967191745 H 0.0 **** 0.06
17664 H 19.148745818133193 61.15632674757387 85.67287874075589 H 0.0 **** 0.06
17665 H 19.450078323539373 59.84794243410914 86.84232272520825 H 0.0 **** 0.06
17666 C 82.36959939975753 47.94811903888868 112.4408469546499 C 0.0 **** -0.24
17667 H 81.77928602798073 47.84482585509079 111.53042913814623 H 0.0 **** 0.06
17668 H 82.31890952574511 48.97927387659895 112.79191284639282 H 0.0 **** 0.06
17669 H 83.40721360505648 47.686242848761026 112.23168520456719 H 0.0 **** 0.06
17670 H 81.97488592484305 47.28271733827066 113.20792566570456 H 0.0 **** 0.06
17671 C 24.676660115879592 29.831710507403002 64.82663639012961 C 0.0 **** -0.24
17672 H 23.903293486138942 30.118666613418767 64.11467349101713 H 0.0 **** 0.06
17673 H 24.21121658733469 29.40894860214641 65.71772826775751 H 0.0 **** 0.06
17674 H 25.25934441820049 30.710936040018396 65.10410803889673 H 0.0 **** 0.06
17675 H 25.333254410617904 29.090141260383007 64.37235023639772 H 0.0 **** 0.06
17676 C 100.09444581075172 0.7694395892831949 20.544489060852058 C 0.0 **** -0.24
17677 H 100.3955950321012 -0.26166049795557456 20.73361285705684 H 0.0 **** 0.06
17678 H 100.93221544499113 1.4356702143500968 20.753536510109797 H 0.0 **** 0.06
17679 H 99.25627014983303 1.0269025264142044 21.190526406291042 H 0.0 **** 0.06
17680 H 99.79673495039196 0.8759700738254423 19.5020235294231 H 0.0 **** 0.06
17681 C 31.437475990922152 53.773152476581856 67.81231910161259 C 0.0 **** -0.24
17682 H 32.34945027556115 53.546722641716116 67.25893003103914 H 0.0 **** 0.06
17683 H 31.637291401145752 53.71200244927428 68.88200897705889 H 0.0 **** 0.06
17684 H 30.66308495124826 53.05502992639728 67.54445079497685 H 0.0 **** 0.06
17685 H 31.102956909243176 54.78007835224332 67.56120105300411 H 0.0 **** 0.06
17686 C 7.1615943313245225 24.55141663244237 30.941138208805995 C 0.0 **** -0.24
17687 H 6.533930291167934 25.39069982831944 31.240376447421312 H 0.0 **** 0.06
17688 H 8.038670558395012 24.924929242774567 30.41122059890634 H 0.0 **** 0.06
17689 H 6.595383757300766 23.88901940319184 30.285776853546366 H 0.0 **** 0.06
17690 H 7.47977165521533 24.001331732421306 31.827162928077257 H 0.0 **** 0.06
17691 C 9.05077516614557 8.71058362653686 2.5118798094626413 C 0.0 **** -0.24
17692 H 8.483347746402131 8.14945813206819 1.7685801798974694 H 0.0 **** 0.06
17693 H 10.098316199891201 8.41155947411525 2.4682869613177445 H 0.0 **** 0.06
17694 H 8.6542530371633 8.502350912694212 3.5046210590600992 H 0.0 **** 0.06
17695 H 8.967489805412555 9.776387151533982 2.3026759013532967 H 0.0 **** 0.06
17696 C 19.36594400978197 88.67776142692867 69.5928611946685 C 0.0 **** -0.24
17697 H 19.190376228386953 87.7948576116255 68.97806140199117 H 0.0 **** 0.06
17698 H 18.460318646331388 88.91884861863284 70.14878168123687 H 0.0 **** 0.06
17699 H 19.635513115163405 89.51792238726014 68.95249172869444 H 0.0 **** 0.06
17700 H 20.179605360507253 88.47787610911274 70.29053667002933 H 0.0 **** 0.06
17701 C 100.76077269263271 99.70657386284296 109.76855677907581 C 0.0 **** -0.24
17702 H 100.86078166433373 99.99021258927272 110.81655595922896 H 0.0 **** 0.06
17703 H 101.46283317735242 100.28455635645224 109.16763309357117 H 0.0 **** 0.06
17704 H 99.74328417061199 99.90779365923831 109.43338120255585 H 0.0 **** 0.06
17705 H 100.9761403454738 98.64398095046934 109.6576242590833 H 0.0 **** 0.06
17706 C 94.17988462038207 27.192247927833705 32.46050513557063 C 0.0 **** -0.24
17707 H 93.17201103943171 26.995607815004234 32.094290028805105 H 0.0 **** 0.06
17708 H 94.20617462929167 28.167944429794147 32.945370186290106 H 0.0 **** 0.06
17709 H 94.87845112806738 27.18315101183987 31.623483583020686 H 0.0 **** 0.06
17710 H 94.46242264099556 26.421226726122427 33.17759478329435 H 0.0 **** 0.06
17711 C 33.212920506877566 59.34689513900054 4.9175497032481985 C 0.0 **** -0.24
17712 H 33.540316885590784 58.355037274971096 4.607873287457721 H 0.0 **** 0.06
17713 H 32.132693606598735 59.342253992152564 5.065368197452358 H 0.0 **** 0.06
17714 H 33.4715738899269 60.07281061736876 4.146965454122721 H 0.0 **** 0.06
17715 H 33.70623785858112 59.616486658812335 5.852059971091194 H 0.0 **** 0.06
17716 C 114.45861160690772 102.70912000715234 79.65170937277583 C 0.0 **** -0.24
17717 H 115.39026564235537 102.40917871656544 80.13150927751019 H 0.0 **** 0.06
17718 H 113.63039740041302 102.56918844055619 80.34735326712598 H 0.0 **** 0.06
17719 H 114.29424053383678 102.09850782245178 78.76384796522439 H 0.0 **** 0.06
17720 H 114.51897217743385 103.7591734954332 79.36482565941554 H 0.0 **** 0.06
17721 C 63.38192680127398 100.47391454328016 20.31872769510713 C 0.0 **** -0.24
17722 H 62.520947125291656 100.20397021371286 20.930519360330578 H 0.0 **** 0.06
17723 H 64.11963904338938 99.67302442928067 20.356682659735412 H 0.0 **** 0.06
17724 H 63.823483636626065 101.39468712739736 20.699987944486338 H 0.0 **** 0.06
17725 H 63.06057368736532 100.6245272612544 19.288278311680955 H 0.0 **** 0.06
17726 C 25.281343976838173 73.6908852519017 3.0666057170430463 C 0.0 **** -0.24
17727 H 25.327344232323554 72.71784237356377 2.5768970936088067 H 0.0 **** 0.06
17728 H 25.948684781630817 73.69518029239447 3.9279394033319477 H 0.0 **** 0.06
17729 H 24.259761021397225 73.88230902502829 3.3955406513624666 H 0.0 **** 0.06
17730 H 25.588691768579196 74.46517883546517 2.3640413307500125 H 0.0 **** 0.06
17731 C 97.26704482307159 59.655821065017825 89.38898581045052 C 0.0 **** -0.24
17732 H 98.31171432145598 59.546957775337155 89.0977859106498 H 0.0 **** 0.06
17733 H 96.69347312952257 58.81200233939723 89.00565119467112 H 0.0 **** 0.06
17734 H 96.86944855763548 60.583274936992616 88.97558461138951 H 0.0 **** 0.06
17735 H 97.19363778200864 59.681983644950485 90.47657807736189 H 0.0 **** 0.06
17736 C 77.93400691881462 36.91470299944871 61.81330109661053 C 0.0 **** -0.24
17737 H 77.68965997647763 37.61409339141949 62.61177120766109 H 0.0 **** 0.06
17738 H 77.09628990492408 36.84942784520916 61.11795412747705 H 0.0 **** 0.06
17739 H 78.12919496149644 35.930093628148825 62.23960503524347 H 0.0 **** 0.06
17740 H 78.82037692428617 37.263541409107575 61.28392702082209 H 0.0 **** 0.06
17741 C 59.60719184890406 90.58718364263544 12.11343544131799 C 0.0 **** -0.24
17742 H 59.747571571339186 91.6093073039419 11.761523903575963 H 0.0 **** 0.06
17743 H 58.66851407974561 90.51745226216212 12.663112206999855 H 0.0 **** 0.06
17744 H 60.43466283950428 90.31181253920249 12.768923505481382 H 0.0 **** 0.06
17745 H 59.58065831805852 89.90940285422352 11.259506165219406 H 0.0 **** 0.06
17746 C 92.517638102781 0.2526828011777411 99.27601152514046 C 0.0 **** -0.24
17747 H 92.45234241828666 -0.8329278704225231 99.20683147455367 H 0.0 **** 0.06
17748 H 93.13474288611656 0.5260342669962057 100.1314380742146 H 0.0 **** 0.06
17749 H 91.5179942407596 0.6698202780965801 99.40066497266332 H 0.0 **** 0.06
17750 H 92.9638661288416 0.6483000255453533 98.3636374114723 H 0.0 **** 0.06
17751 C 46.294236973868706 106.50756940301747 25.887937618154808 C 0.0 **** -0.24
17752 H 46.42177639885962 107.16535454031296 25.028535884604878 H 0.0 **** 0.06
17753 H 46.8316642610946 105.57498183796906 25.713658080484123 H 0.0 **** 0.06
17754 H 45.233567225380966 106.29598927260818 26.027524745659463 H 0.0 **** 0.06
17755 H 46.68869270856122 106.99378896801466 26.779929853143273 H 0.0 **** 0.06
17756 C 46.84398491825172 75.62598870018161 100.07120610485427 C 0.0 **** -0.24
17757 H 47.663871326645 75.5949629402092 99.35253877209195 H 0.0 **** 0.06
17758 H 45.92947703444565 75.27206339176814 99.59504732447596 H 0.0 **** 0.06
17759 H 46.70198082227583 76.6509855144393 100.41496238781679 H 0.0 **** 0.06
17760 H 47.082795020430915 74.98681327719015 100.92158985077484 H 0.0 **** 0.06
17761 C 75.23901200262492 63.42441762024871 23.014287123849158 C 0.0 **** -0.24
17762 H 74.68628724106063 64.36171182801431 22.946104248483834 H 0.0 **** 0.06
17763 H 75.82937728897926 63.41773758352689 23.93006336286129 H 0.0 **** 0.06
17764 H 75.90045448532996 63.33010308403116 22.153584780529314 H 0.0 **** 0.06
17765 H 74.53770294683426 62.58975112434201 23.026222183293157 H 0.0 **** 0.06
17766 C 8.888800071725015 4.783389468064712 37.527769424801434 C 0.0 **** -0.24
17767 H 9.6158190786078 5.245262471512774 36.85975620719393 H 0.0 **** 0.06
17768 H 9.405840718251497 4.119291142615708 38.221720039071904 H 0.0 **** 0.06
17769 H 8.170812696354545 4.210327468311505 36.94210828642215 H 0.0 **** 0.06
17770 H 8.365989079120226 5.559222106815753 38.08723377253191 H 0.0 **** 0.06
17771 C 61.074278034708136 64.69585441258599 60.333271163958266 C 0.0 **** -0.24
17772 H 60.394123836951714 65.04191542963292 61.11229110661727 H 0.0 **** 0.06
17773 H 61.955476038220276 64.24754148415437 60.79344572755729 H 0.0 **** 0.06
17774 H 61.376202960846136 65.53917748916072 59.714266848307 H 0.0 **** 0.06
17775 H 60.569164781746174 63.95310520388022 59.71522244386184 H 0.0 **** 0.06
17776 C 57.926095143481994 43.86242361307279 28.530485554530998 C 0.0 **** -0.24
17777 H 57.810248669694936 44.64568187035172 29.27913568702766 H 0.0 **** 0.06
17778 H 58.51729831180176 44.24250613901239 27.696147991761777 H 0.0 **** 0.06
17779 H 56.94491161683499 43.55490940561816 28.17059697557501 H 0.0 **** 0.06
17780 H 58.43432970933532 43.00699346618603 28.975847062739874 H 0.0 **** 0.06
17781 C 111.27610700845642 75.68940974397236 44.54709974163907 C 0.0 **** -0.24
17782 H 112.12654533483831 76.14687131435687 45.05188235287869 H 0.0 **** 0.06
17783 H 111.14253367310499 76.15081467105233 43.56882288774793 H 0.0 **** 0.06
17784 H 110.37685275017304 75.83704090402765 45.14519236708938 H 0.0 **** 0.06
17785 H 111.45862895169813 74.62133801540847 44.42372811457366 H 0.0 **** 0.06
17786 C 9.12332009076249 27.024491980900052 1.1062028789112333 C 0.0 **** -0.24
17787 H 8.527264105824884 27.06837202605601 2.018053087662281 H 0.0 **** 0.06
17788 H 10.09281555412457 26.577146272975853 1.3274773275363145 H 0.0 **** 0.06
17789 H 9.267453715088948 28.032160180375044 0.7180428732723385 H 0.0 **** 0.06
17790 H 8.604715020753133 26.419932771007097 0.3621370841790963 H 0.0 **** 0.06
17791 C 90.30303284918207 0.7225495996176967 106.23537943378517 C 0.0 **** -0.24
17792 H 89.62443246246067 1.4056590501795032 106.74602015551778 H 0.0 **** 0.06
17793 H 91.11393188274855 1.2904391744694674 105.77895619883455 H 0.0 **** 0.06
17794 H 89.75859227736137 0.18008932344522144 105.46212377951628 H 0.0 **** 0.06
17795 H 90.71483992617016 0.014840712671553291 106.95486399061664 H 0.0 **** 0.06
17796 C 116.19093375528817 100.62580250654833 106.53331511066057 C 0.0 **** -0.24
17797 H 116.28991739105402 101.62004954645852 106.09807034154079 H 0.0 **** 0.06
17798 H 115.18238189538445 100.24976183095322 106.35537510423492 H 0.0 **** 0.06
17799 H 116.37497226810288 100.67894257661703 107.60656901866648 H 0.0 **** 0.06
17800 H 116.91529101827035 99.9536713275703 106.07334424777721 H 0.0 **** 0.06
17801 C 14.934810575129703 40.73711699910959 2.55233232487916 C 0.0 **** -0.24
17802 H 14.052828426646684 41.19532297714039 2.104371656273713 H 0.0 **** 0.06
17803 H 14.858356502401847 39.65228170208849 2.4733945821641328 H 0.0 **** 0.06
17804 H 14.998986345500626 41.022352600643416 3.601537730572602 H 0.0 **** 0.06
17805 H 15.82698662603903 41.077827277843426 2.026993993979204 H 0.0 **** 0.06
17806 C 59.92274126706252 18.963045890047056 75.63420089186883 C 0.0 **** -0.24
17807 H 60.13941552986745 19.926293007476858 75.17265002404065 H 0.0 **** 0.06
17808 H 59.007220941280536 19.0397171442672 76.22049945035866 H 0.0 **** 0.06
17809 H 60.74869058436451 18.677223541949672 76.28539768750778 H 0.0 **** 0.06
17810 H 59.79483149747034 18.208605971985335 74.85777544014309 H 0.0 **** 0.06
17811 C 57.524295381960805 21.846984982210074 34.90557744287553 C 0.0 **** -0.24
17812 H 58.425768040116544 21.74894097088074 34.300313522609606 H 0.0 **** 0.06
17813 H 57.80231169947381 22.006096322542646 35.947506654011455 H 0.0 **** 0.06
17814 H 56.930156466585935 20.936551095394805 34.82133906921926 H 0.0 **** 0.06
17815 H 56.9403853726077 22.69541540164124 34.550903224476 H 0.0 **** 0.06
17816 C 54.69437209794728 22.566488567191094 22.279363869038235 C 0.0 **** -0.24
17817 H 55.13827482619499 22.008746847875045 21.454610862602266 H 0.0 **** 0.06
17818 H 54.57213220702434 23.610429093646314 21.9880502244184 H 0.0 **** 0.06
17819 H 55.34538832037052 22.505692898879413 23.15096680519784 H 0.0 **** 0.06
17820 H 53.72004898246908 22.140248722729456 22.522215953475012 H 0.0 **** 0.06
17821 C 43.97022974217802 61.78522915459546 116.45410846110954 C 0.0 **** -0.24
17822 H 43.132869306633495 62.27230476234234 115.95491632385969 H 0.0 **** 0.06
17823 H 44.891345853053735 62.00240565996342 115.91258977701526 H 0.0 **** 0.06
17824 H 43.80507498131591 60.70793730097137 116.47311208509038 H 0.0 **** 0.06
17825 H 44.051810191039394 62.15922273878976 117.47478735615027 H 0.0 **** 0.06
17826 C 61.26723000883217 15.349954500149579 5.7311432983629516 C 0.0 **** -0.24
17827 H 60.477483944628744 16.03220501161283 6.048188170025611 H 0.0 **** 0.06
17828 H 62.230631258082866 15.857231925943381 5.791564079033691 H 0.0 **** 0.06
17829 H 61.08530188256694 15.035673027267848 4.703593661474343 H 0.0 **** 0.06
17830 H 61.274949074228545 14.476750632096127 6.383353675235895 H 0.0 **** 0.06
17831 C 76.20499907048372 59.360447674579376 100.436800924615 C 0.0 **** -0.24
17832 H 77.03210833119363 59.40756034788299 99.72857170929817 H 0.0 **** 0.06
17833 H 76.12187415664539 60.31314181725844 100.96069417383694 H 0.0 **** 0.06
17834 H 76.38883243111854 58.56382976294486 101.15723074332703 H 0.0 **** 0.06
17835 H 75.27812724301373 59.15817390670995 99.900189430923 H 0.0 **** 0.06
17836 C 31.777973020694617 109.30816049296061 75.25504763206308 C 0.0 **** -0.24
17837 H 32.83882483746578 109.13802297859638 75.07246452663335 H 0.0 **** 0.06
17838 H 31.322416421445382 109.74742991529996 74.36684236301949 H 0.0 **** 0.06
17839 H 31.657994642791607 109.98660217503249 76.09895578225064 H 0.0 **** 0.06
17840 H 31.291816756379433 108.35843612174972 75.47976681792619 H 0.0 **** 0.06
17841 C 21.9487953874497 111.75109519658335 94.23123698581168 C 0.0 **** -0.24
17842 H 22.385480487153323 110.75998930872754 94.35658945925502 H 0.0 **** 0.06
17843 H 21.046173607645542 111.67518362416322 93.62347188028161 H 0.0 **** 0.06
17844 H 22.66759746057993 112.40390856006704 93.73499680699854 H 0.0 **** 0.06
17845 H 21.696302739172133 112.16345835139046 95.207550455692 H 0.0 **** 0.06
17846 C 25.425577478933207 14.140464355545319 64.44777716933368 C 0.0 **** -0.24
17847 H 26.35198470569128 14.421797526985316 63.94712433748231 H 0.0 **** 0.06
17848 H 25.481789058056506 14.418612681689297 65.50042514507993 H 0.0 **** 0.06
17849 H 25.27961167282791 13.064095805756153 64.36322759132355 H 0.0 **** 0.06
17850 H 24.588273542073892 14.657966073422784 63.97923680523712 H 0.0 **** 0.06
17851 C 17.60967909434628 27.021987588760965 39.54893339280619 C 0.0 **** -0.24
17852 H 17.34813973861645 27.525781707925773 38.61759902598962 H 0.0 **** 0.06
17853 H 18.06551002311307 26.056827986612518 39.32298604608724 H 0.0 **** 0.06
17854 H 16.709777050169492 26.868811035292993 40.14336684964945 H 0.0 **** 0.06
17855 H 18.315475492682953 27.636195964683623 40.107106675827026 H 0.0 **** 0.06
17856 C 71.00639496823445 90.67087249872446 108.14623202337009 C 0.0 **** -0.24
17857 H 70.69291052973455 90.079817842317 107.28576246505219 H 0.0 **** 0.06
17858 H 71.15987335920872 90.01264661062103 109.00187802378886 H 0.0 **** 0.06
17859 H 70.23516389463342 91.40315841851015 108.3844565183083 H 0.0 **** 0.06
17860 H 71.93763208936059 91.18786712344962 107.91283108633115 H 0.0 **** 0.06
17861 C 17.939172957389033 34.46761893674287 21.19227430727696 C 0.0 **** -0.24
17862 H 18.326155267825627 33.5087228939165 21.5395524904948 H 0.0 **** 0.06
17863 H 16.999433336254267 34.6849991466242 21.700304104425072 H 0.0 **** 0.06
17864 H 17.769049271651816 34.4216565373022 20.11605851855802 H 0.0 **** 0.06
17865 H 18.662906200021485 35.25205209011303 21.41314027416206 H 0.0 **** 0.06
17866 C 39.5713382450034 115.55197702406267 109.81160122785603 C 0.0 **** -0.24
17867 H 39.54467037272062 114.47141677641557 109.95386987422859 H 0.0 **** 0.06
17868 H 39.72673298994684 116.04076266596206 110.77350977227341 H 0.0 **** 0.06
17869 H 38.62642166125326 115.88497828647303 109.3829688232259 H 0.0 **** 0.06
17870 H 40.38725941862742 115.80907503554329 109.13711539542479 H 0.0 **** 0.06
17871 C 75.32691973471827 99.6013374861758 115.86997600887172 C 0.0 **** -0.24
17872 H 74.71913658083577 99.00524336601575 115.18955747623076 H 0.0 **** 0.06
17873 H 75.12007687349819 100.65977412312776 115.7074461284694 H 0.0 **** 0.06
17874 H 76.3819365997403 99.4038176340145 115.68157415939791 H 0.0 **** 0.06
17875 H 75.0855337419502 99.33753137726828 116.8986849028757 H 0.0 **** 0.06
17876 C 69.92230358360118 96.44458657910593 104.98705866571717 C 0.0 **** -0.24
17877 H 70.06133200813451 95.85405039475518 104.08176144949473 H 0.0 **** 0.06
17878 H 68.89856890424218 96.33001790117157 105.34195616082292 H 0.0 **** 0.06
17879 H 70.1158043772798 97.49537595189292 104.76833925701683 H 0.0 **** 0.06
17880 H 70.61494816352516 96.1002788795688 105.75475172505472 H 0.0 **** 0.06
17881 C 61.8172926073438 67.2177828880915 95.85096065238702 C 0.0 **** -0.24
17882 H 61.70618443169508 67.41079874104005 96.91805475787817 H 0.0 **** 0.06
17883 H 60.967142383032694 66.63131524403241 95.49889331253416 H 0.0 **** 0.06
17884 H 62.73838593600419 66.66312635105581 95.67608902511768 H 0.0 **** 0.06
17885 H 61.854006341880165 68.16468983574728 95.31318165846102 H 0.0 **** 0.06
17886 C 46.382932119233054 84.5188026995013 82.61182669982185 C 0.0 **** -0.24
17887 H 46.09815152907175 85.03053611909337 83.53126234270064 H 0.0 **** 0.06
17888 H 46.43380961058063 83.44543216824104 82.79392045406223 H 0.0 **** 0.06
17889 H 47.35857838136367 84.87910746425146 82.28417159346611 H 0.0 **** 0.06
17890 H 45.64197454496506 84.72211359667827 81.83863686429237 H 0.0 **** 0.06
17891 C 27.859172738097193 61.13270423380743 42.076795239724454 C 0.0 **** -0.24
17892 H 28.81402381988743 60.619260026679115 41.970304197947655 H 0.0 **** 0.06
17893 H 27.453008415262325 61.35303618854954 41.08898786672791 H 0.0 **** 0.06
17894 H 28.00631393962925 62.06280773269549 42.62580518179347 H 0.0 **** 0.06
17895 H 27.16200157210539 60.495381339030985 42.621790583626336 H 0.0 **** 0.06
17896 C 98.93591933436255 98.98452862136892 97.1506185299898 C 0.0 **** -0.24
17897 H 98.01994782082852 99.3570293620673 96.69214242195972 H 0.0 **** 0.06
17898 H 99.48801297826071 98.38601117677752 96.42537409199511 H 0.0 **** 0.06
17899 H 98.68527597982961 98.36809960900027 98.0139893387402 H 0.0 **** 0.06
17900 H 99.55040255697196 99.82562412997251 97.4705492072915 H 0.0 **** 0.06
17901 C 115.90661609285856 100.11431037269227 39.285764222961625 C 0.0 **** -0.24
17902 H 116.48993926670629 100.97838606103946 38.96597475126705 H 0.0 **** 0.06
17903 H 114.90703306614925 100.44015166154551 39.577435830213275 H 0.0 **** 0.06
17904 H 116.39707959564385 99.63924588165699 40.13602377729389 H 0.0 **** 0.06
17905 H 115.83115562729779 99.40233389677138 38.46469473551484 H 0.0 **** 0.06
17906 C 44.73482112394089 38.24698406377513 80.88189671029875 C 0.0 **** -0.24
17907 H 45.72541964738798 38.698817083788896 80.80660642502471 H 0.0 **** 0.06
17908 H 44.453376754071485 37.82889717925343 79.91583701176467 H 0.0 **** 0.06
17909 H 44.010904750360964 39.007203330000635 81.17408102455283 H 0.0 **** 0.06
17910 H 44.7534469923682 37.45567141105397 81.63087153775069 H 0.0 **** 0.06
17911 C 20.429760209710068 46.86451450363748 55.120572779177024 C 0.0 **** -0.24
17912 H 19.77518603859238 47.03940931584208 54.267218001773074 H 0.0 **** 0.06
17913 H 19.8387852283701 46.50971499374273 55.965469160785545 H 0.0 **** 0.06
17914 H 20.92966811747374 47.79391480088722 55.39233021539533 H 0.0 **** 0.06
17915 H 21.175705325362344 46.114127342428475 54.85832867778882 H 0.0 **** 0.06
17916 C 24.66196577734479 2.9130479019192386 104.83279891726238 C 0.0 **** -0.24
17917 H 24.891291800060714 2.9010549103671774 105.89774757143655 H 0.0 **** 0.06
17918 H 23.66103912451746 2.5106476606013555 104.67227810684753 H 0.0 **** 0.06
17919 H 25.389299969172015 2.3017123336254244 104.29761219877989 H 0.0 **** 0.06
17920 H 24.70543302116465 3.937392325216125 104.46289073855439 H 0.0 **** 0.06
17921 C 40.228038612724234 89.86120555193335 18.06438427377691 C 0.0 **** -0.24
17922 H 40.54405811693893 88.98917293651456 18.636238897661514 H 0.0 **** 0.06
17923 H 40.44444888662349 89.70197818657385 17.00799977624189 H 0.0 **** 0.06
17924 H 40.76464941671615 90.7415274225906 18.416987683706708 H 0.0 **** 0.06
17925 H 39.155994579465215 90.01290358000361 18.19694507682354 H 0.0 **** 0.06
17926 C 102.9501004931272 34.65620747926263 92.55866218842911 C 0.0 **** -0.24
17927 H 103.15475741943044 34.906885351060595 93.5988280546101 H 0.0 **** 0.06
17928 H 103.7945782834968 34.104106258540725 92.14582264828638 H 0.0 **** 0.06
17929 H 102.80013425941937 35.571861405876206 91.98707496593065 H 0.0 **** 0.06
17930 H 102.05220841245111 34.04137915996034 92.50280638758343 H 0.0 **** 0.06
17931 C 110.6468308868915 88.62417060250024 2.65949121149103 C 0.0 **** -0.24
17932 H 111.05139392786222 88.56229276085824 3.669934612534348 H 0.0 **** 0.06
17933 H 109.64321664512003 89.04766037981145 2.696448196038034 H 0.0 **** 0.06
17934 H 110.60470888584372 87.62661514890661 2.2236681446232467 H 0.0 **** 0.06
17935 H 111.2885164897689 89.2605935209402 2.0497868189632413 H 0.0 **** 0.06
17936 C 74.43266178563758 38.19264168509295 16.948083685245038 C 0.0 **** -0.24
17937 H 73.84116617922447 37.809657086922755 16.117422129672985 H 0.0 **** 0.06
17938 H 75.12907455071925 38.947363748356395 16.581420505424216 H 0.0 **** 0.06
17939 H 74.98998438241236 37.374304175161626 17.40496141682827 H 0.0 **** 0.06
17940 H 73.77064295890784 38.639547755818285 17.69022116615015 H 0.0 **** 0.06
17941 C 84.86654350256339 15.140173086476409 79.91328722889142 C 0.0 **** -0.24
17942 H 84.26105284751065 14.294014445582604 80.23901659695395 H 0.0 **** 0.06
17943 H 85.38318349605169 15.568825050138912 80.77227419070817 H 0.0 **** 0.06
17944 H 84.22266352646824 15.894502854292966 79.46134571923079 H 0.0 **** 0.06
17945 H 85.59942030003964 14.800946758829184 79.18006136850397 H 0.0 **** 0.06
17946 C 31.095608328420667 7.7529904472773055 10.588765321382802 C 0.0 **** -0.24
17947 H 31.981687405177183 8.3866903412505 10.573234298904232 H 0.0 **** 0.06
17948 H 30.568050523384557 7.889499717666826 11.53325830702164 H 0.0 **** 0.06
17949 H 31.39404665753966 6.709160627279699 10.485363640583628 H 0.0 **** 0.06
17950 H 30.43948592835494 8.02711100656034 9.76298311728591 H 0.0 **** 0.06
17951 C 25.21851292186102 10.52669498697195 37.845464884475874 C 0.0 **** -0.24
17952 H 25.201764768162093 10.137968074060723 36.8271418181618 H 0.0 **** 0.06
17953 H 24.607102485522773 11.42778103759964 37.89981752540555 H 0.0 **** 0.06
17954 H 26.2450197678869 10.766295612282729 38.12481101746697 H 0.0 **** 0.06
17955 H 24.822149500595117 9.774614885314218 38.52784274142898 H 0.0 **** 0.06
17956 C 42.941670145575586 103.75145134348998 27.893101164044012 C 0.0 **** -0.24
17957 H 43.252062909716585 102.71127172181508 27.795501795028926 H 0.0 **** 0.06
17958 H 42.49846088434538 103.90705369475734 28.87733512885464 H 0.0 **** 0.06
17959 H 42.2074879122121 103.98513890162099 27.122185131313827 H 0.0 **** 0.06
17960 H 43.8096336955295 104.40178385471722 27.77825367297327 H 0.0 **** 0.06
17961 C 103.97138097288888 57.834398219275926 73.06702045298675 C 0.0 **** -0.24
17962 H 104.85873113084435 57.272961639126294 72.77349078302643 H 0.0 **** 0.06
17963 H 103.16507633462246 57.14100487846213 73.3067129356815 H 0.0 **** 0.06
17964 H 103.66349541212608 58.48138266676162 72.24565173724838 H 0.0 **** 0.06
17965 H 104.20035163921895 58.442912955061985 73.94211315603684 H 0.0 **** 0.06
17966 C 101.36713049177183 115.66159207356282 23.718908882212787 C 0.0 **** -0.24
17967 H 100.95097394439267 115.78863820215679 24.718896904263943 H 0.0 **** 0.06
17968 H 100.65273861915256 116.0257160816206 22.98053572020828 H 0.0 **** 0.06
17969 H 101.56686188055943 114.60439011349115 23.54166779120719 H 0.0 **** 0.06
17970 H 102.2954778739944 116.2257907560068 23.638076540163198 H 0.0 **** 0.06
17971 C 108.00413313673403 77.71276375412629 21.885348144078876 C 0.0 **** -0.24
17972 H 108.20773389037652 77.1529071847113 22.79857394576196 H 0.0 **** 0.06
17973 H 107.57432252189639 77.04566265807932 21.13794133096223 H 0.0 **** 0.06
17974 H 108.93355412643609 78.13606389099613 21.504797796301904 H 0.0 **** 0.06
17975 H 107.30075329418398 78.51670562771727 22.10229105788842 H 0.0 **** 0.06
17976 C 90.26328791535383 13.49140225278208 45.04237985396179 C 0.0 **** -0.24
17977 H 89.66089641567751 12.687763354407224 44.61740922254785 H 0.0 **** 0.06
17978 H 90.98781481600585 13.07101350052588 45.73992414654532 H 0.0 **** 0.06
17979 H 89.6146191500105 14.191597374112291 45.56947627308347 H 0.0 **** 0.06
17980 H 90.78857256617377 14.013750142993786 44.24222315939767 H 0.0 **** 0.06
17981 C 28.74040102630604 49.30941742934078 67.19721961172934 C 0.0 **** -0.24
17982 H 27.715578176360324 49.55285211049494 66.91708992519915 H 0.0 **** 0.06
17983 H 29.192922359790607 50.16520804501498 67.69704834749331 H 0.0 **** 0.06
17984 H 29.313594702968267 49.06532900143206 66.30271761450092 H 0.0 **** 0.06
17985 H 28.7385828672502 48.45251378964544 67.87216843414896 H 0.0 **** 0.06
17986 C 57.88549088709806 95.76457699859085 95.27224826549394 C 0.0 **** -0.24
17987 H 58.37442799845391 96.49297852393951 95.91917769503735 H 0.0 **** 0.06
17988 H 58.51195128441961 94.87690381564298 95.18582116574686 H 0.0 **** 0.06
17989 H 57.732349714976266 96.19974768101491 94.28444248908721 H 0.0 **** 0.06
17990 H 56.92146692689542 95.48830809655283 95.70120671838507 H 0.0 **** 0.06
17991 C 18.653266701705945 51.347243996923055 16.841434304331813 C 0.0 **** -0.24
17992 H 18.94441120808932 51.29821346309748 15.79237147247585 H 0.0 **** 0.06
17993 H 18.13472119254652 52.28701584162437 17.031272129618117 H 0.0 **** 0.06
17994 H 19.543066208532508 51.289764565522404 17.46830663014535 H 0.0 **** 0.06
17995 H 17.991133156124533 50.51244565731042 17.07454147922641 H 0.0 **** 0.06
17996 C 108.91964264209393 74.41342038141082 36.67041849334976 C 0.0 **** -0.24
17997 H 108.06078885244048 74.03072149022236 37.221517100025295 H 0.0 **** 0.06
17998 H 108.57937732004152 75.11200458177237 35.90540696044029 H 0.0 **** 0.06
17999 H 109.44533676068511 73.58408043425936 36.196757290695295 H 0.0 **** 0.06
18000 H 109.59294764370257 74.92582099254807 37.3570573439067 H 0.0 **** 0.06
18001 C 94.1723552693716 52.568359020844134 9.086912184975631 C 0.0 **** -0.24
18002 H 93.447194121558 52.08339990983505 8.433683346604425 H 0.0 **** 0.06
18003 H 93.77858530897598 53.52987870771355 9.416862325202828 H 0.0 **** 0.06
18004 H 95.10391811586152 52.72526414177912 8.54220908145453 H 0.0 **** 0.06
18005 H 94.36071611491352 51.93511429082352 9.953491800779688 H 0.0 **** 0.06
18006 C 10.630551386479908 94.19603528010103 110.567945184091 C 0.0 **** -0.24
18007 H 10.355968652372844 93.64973459195926 109.66619866716538 H 0.0 **** 0.06
18008 H 10.678590847868662 95.26213687965313 110.34601376070388 H 0.0 **** 0.06
18009 H 11.604672052337243 93.85318720217117 110.91735198788874 H 0.0 **** 0.06
18010 H 9.884661973192625 94.01899960948268 111.34183679962173 H 0.0 **** 0.06
18011 C 3.8908736884084245 110.11177112415413 46.18534105809505 C 0.0 **** -0.24
18012 H 3.168106939673459 110.78912038762876 45.72917854790177 H 0.0 **** 0.06
18013 H 3.860252186367612 110.2248967225041 47.26981142978059 H 0.0 **** 0.06
18014 H 4.890776342907895 110.3518731030292 45.823001819564354 H 0.0 **** 0.06
18015 H 3.644427793135625 109.08433161674377 45.91976362169032 H 0.0 **** 0.06
18016 C 16.575755853949943 11.284859088043106 89.5899320829352 C 0.0 **** -0.24
18017 H 17.642209161950472 11.216315363879929 89.8025750109243 H 0.0 **** 0.06
18018 H 16.332540357332476 10.643012532001649 88.74269703060415 H 0.0 **** 0.06
18019 H 16.318069428855875 12.317109547931523 89.3496598396708 H 0.0 **** 0.06
18020 H 16.00986435299403 10.963909586326437 90.46456183233317 H 0.0 **** 0.06
18021 C 78.6065465433478 19.47946562957793 71.295783388664 C 0.0 **** -0.24
18022 H 78.65654426804429 20.130126974156425 70.42243005999356 H 0.0 **** 0.06
18023 H 78.73725809382978 18.443106453120038 70.98379439183208 H 0.0 **** 0.06
18024 H 77.63731400489053 19.593978811374342 71.77956112034633 H 0.0 **** 0.06
18025 H 79.39667609539458 19.75114161013059 71.99556506940039 H 0.0 **** 0.06
18026 C 26.872240320252033 69.44535594645868 57.78487848860089 C 0.0 **** -0.24
18027 H 26.511678297402213 69.07095219536205 58.74387740739943 H 0.0 **** 0.06
18028 H 27.957821400864105 69.54090071086065 57.818283835058914 H 0.0 **** 0.06
18029 H 26.426834158781105 70.41931096775181 57.58524417499286 H 0.0 **** 0.06
18030 H 26.592104660433307 68.74865279464387 56.99513253912571 H 0.0 **** 0.06
18031 C 38.87786430282023 86.26983478795373 51.37317158613956 C 0.0 **** -0.24
18032 H 38.077709608127236 85.9894010315474 52.058379843117976 H 0.0 **** 0.06
18033 H 38.76810671448183 87.31946653005772 51.09673612491249 H 0.0 **** 0.06
18034 H 38.82341388286352 85.65122620084796 50.477787596138704 H 0.0 **** 0.06
18035 H 39.84166709327553 86.1214013594979 51.85997920079723 H 0.0 **** 0.06
18036 C 66.2502573578445 85.73366476202261 107.47235579202945 C 0.0 **** -0.24
18037 H 65.39318371607408 86.40757503755367 107.49166217617832 H 0.0 **** 0.06
18038 H 67.1045870189802 86.21863456342913 107.94413228648204 H 0.0 **** 0.06
18039 H 66.49629064888043 85.4897612671933 106.43838590418864 H 0.0 **** 0.06
18040 H 66.00542435120389 84.81877078499289 108.01230838192785 H 0.0 **** 0.06
18041 C 56.19687364407781 4.044933980935355 44.630771855960106 C 0.0 **** -0.24
18042 H 55.11214515889867 3.940048259764012 44.64948167975081 H 0.0 **** 0.06
18043 H 56.60965960540955 3.7151694503879753 45.584610478947866 H 0.0 **** 0.06
18044 H 56.45874749270331 5.089596584964426 44.46381055099428 H 0.0 **** 0.06
18045 H 56.60724507676363 3.4349639894561506 43.826565532592085 H 0.0 **** 0.06
18046 C 88.12882056575336 73.20360656616683 30.52820319624516 C 0.0 **** -0.24
18047 H 88.54683054264035 72.7124408623273 29.649124750515227 H 0.0 **** 0.06
18048 H 87.71084426797313 72.45179393464298 31.198439428667143 H 0.0 **** 0.06
18049 H 87.34392251114843 73.89400348065317 30.22091497048808 H 0.0 **** 0.06
18050 H 88.91587563642321 73.75372597099684 31.044707761222412 H 0.0 **** 0.06
18051 C 63.71116675444256 63.90724919357154 53.39228491650459 C 0.0 **** -0.24
18052 H 62.818251202261735 63.302781563397566 53.23207355544264 H 0.0 **** 0.06
18053 H 63.521678011841715 64.9281824734401 53.06073066471794 H 0.0 **** 0.06
18054 H 64.53968691413439 63.4876640873298 52.822674890126336 H 0.0 **** 0.06
18055 H 63.96287825494659 63.90888641479045 54.45221724016034 H 0.0 **** 0.06
18056 C 49.59340987771364 51.5067255689483 31.661783131769482 C 0.0 **** -0.24
18057 H 48.87142661216214 52.11351860383317 31.114143272228148 H 0.0 **** 0.06
18058 H 49.59735968575083 50.49467473095524 31.25532951225233 H 0.0 **** 0.06
18059 H 49.31660562768744 51.47410284957789 32.715117398807934 H 0.0 **** 0.06
18060 H 50.58625816372077 51.94349625216111 31.559932524759972 H 0.0 **** 0.06
18061 C 81.65905085539995 21.585889860916126 40.17229690798062 C 0.0 **** -0.24
18062 H 81.90957108119022 22.398445442224983 39.49077803619292 H 0.0 **** 0.06
18063 H 81.65860954872099 21.95907656943524 41.19691464625856 H 0.0 **** 0.06
18064 H 82.39861184901034 20.79012971298208 40.07551688395432 H 0.0 **** 0.06
18065 H 80.67133237810575 21.19598785257574 39.92652751679978 H 0.0 **** 0.06
18066 C 66.05141843229072 75.91190835676193 67.00355575849235 C 0.0 **** -0.24
18067 H 67.07871084233062 76.26608844698939 66.91491737032464 H 0.0 **** 0.06
18068 H 65.40237975171038 76.52059085323941 66.37226778879023 H 0.0 **** 0.06
18069 H 65.7281070151592 75.9922748429046 68.04120786686295 H 0.0 **** 0.06
18070 H 65.9965716960011 74.8713706273098 66.68496513785692 H 0.0 **** 0.06
18071 C 60.171449696848526 25.602567121068518 92.93598234764997 C 0.0 **** -0.24
18072 H 60.285468627492406 25.329265202096252 93.98438286100932 H 0.0 **** 0.06
18073 H 59.13226452127901 25.47022105924654 92.63705496642982 H 0.0 **** 0.06
18074 H 60.81044661508443 24.966152148185557 92.32413117059778 H 0.0 **** 0.06
18075 H 60.45965025910604 26.644676406946218 92.79929432277686 H 0.0 **** 0.06
18076 C 2.008148088293227 84.9522486323117 103.02017883851079 C 0.0 **** -0.24
18077 H 2.8027377284647645 84.25948219716861 103.29649371136838 H 0.0 **** 0.06
18078 H 2.236615767202048 85.39989046238381 102.05273979592653 H 0.0 **** 0.06
18079 H 1.9304691826058828 85.73534534626756 103.77473468140192 H 0.0 **** 0.06
18080 H 1.062523113893608 84.41334397511866 102.95701102017853 H 0.0 **** 0.06
18081 C 53.729355694292906 109.27004212161182 73.80625106095255 C 0.0 **** -0.24
18082 H 53.908162290322366 108.25146647632374 74.15024205449876 H 0.0 **** 0.06
18083 H 53.14247175009615 109.24466030783418 72.88812091700743 H 0.0 **** 0.06
18084 H 54.68376411499253 109.76093412255634 73.61562162612759 H 0.0 **** 0.06
18085 H 53.18339144672228 109.82097900705074 74.57217505349934 H 0.0 **** 0.06
18086 C 59.17953618323287 97.6320424485738 15.760172456102797 C 0.0 **** -0.24
18087 H 59.26715721286075 96.552659680485 15.884383423767396 H 0.0 **** 0.06
18088 H 58.76217301744447 97.85172452115435 14.777568908404277 H 0.0 **** 0.06
18089 H 60.16569198894774 98.08913174015797 15.847534504961121 H 0.0 **** 0.06
18090 H 58.52392777370363 98.03385834538133 16.532514055113655 H 0.0 **** 0.06
18091 C 58.28004220141765 31.905839433029712 69.02995428530295 C 0.0 **** -0.24
18092 H 58.36514828206737 32.014399224542046 70.1113009945995 H 0.0 **** 0.06
18093 H 57.39157573739629 31.3186837174363 68.793510665974 H 0.0 **** 0.06
18094 H 59.16444008826323 31.397218097945796 68.645148193083 H 0.0 **** 0.06
18095 H 58.19765495143998 32.890908282651196 68.57145823829097 H 0.0 **** 0.06
18096 C 110.11906147183711 71.25474946805531 33.709328957183374 C 0.0 **** -0.24
18097 H 109.47726844644488 70.56225610020846 34.253429662772305 H 0.0 **** 0.06
18098 H 109.60226045351578 72.20665014556528 33.58302442932606 H 0.0 **** 0.06
18099 H 110.35802186308696 70.83756349939839 32.731917237355205 H 0.0 **** 0.06
18100 H 111.04030274312217 71.41307046764999 34.27196478486174 H 0.0 **** 0.06
18101 C 65.40390518381861 56.502413733024135 80.59135413516131 C 0.0 **** -0.24
18102 H 66.38132163764357 56.0975567226829 80.85301578688399 H 0.0 **** 0.06
18103 H 64.6233352993882 55.8431706817771 80.97090019441191 H 0.0 **** 0.06
18104 H 65.3209099157097 56.57784448549477 79.5063753112336 H 0.0 **** 0.06
18105 H 65.2897910473734 57.49271020982936 81.03361411170701 H 0.0 **** 0.06
18106 C 7.51282735948547 98.25899422276794 97.02116548613708 C 0.0 **** -0.24
18107 H 7.016648642158287 99.13910188435918 97.4301155382706 H 0.0 **** 0.06
18108 H 6.840313064630976 97.40262233904394 97.08207327004072 H 0.0 **** 0.06
18109 H 8.416961408564532 98.05316653097546 97.5930461348513 H 0.0 **** 0.06
18110 H 7.775190122941012 98.44148827641735 95.97930338503613 H 0.0 **** 0.06
18111 C 56.76251440948391 102.53346295335086 39.437669228293416 C 0.0 **** -0.24
18112 H 55.898788246594506 103.06713178379803 39.04097203201323 H 0.0 **** 0.06
18113 H 57.28714827568302 103.17125822496016 40.14928603653517 H 0.0 **** 0.06
18114 H 57.43459207276487 102.2719003835094 38.6203005188228 H 0.0 **** 0.06
18115 H 56.42905936734218 101.62485157013904 39.93906234541569 H 0.0 **** 0.06
18116 C 62.95880288071564 110.4969994595147 110.58279574814041 C 0.0 **** -0.24
18117 H 62.70417164709423 111.30423384589349 109.89757430719546 H 0.0 **** 0.06
18118 H 62.04786105611464 110.10726119625421 111.03830547067967 H 0.0 **** 0.06
18119 H 63.620718704745684 110.8766770296069 111.36199689527784 H 0.0 **** 0.06
18120 H 63.46202544310256 109.69997906451741 110.03571212662834 H 0.0 **** 0.06
18121 C 18.557542040409828 63.41095050400102 101.36650725019959 C 0.0 **** -0.24
18122 H 18.069748152199992 63.608138001924715 100.4117548244079 H 0.0 **** 0.06
18123 H 19.211980193072804 64.24473693550007 101.61989792221567 H 0.0 **** 0.06
18124 H 19.144846830673572 62.49571547813514 101.29138133452878 H 0.0 **** 0.06
18125 H 17.80092627167997 63.29384025154894 102.14308744547202 H 0.0 **** 0.06
18126 C 16.089663959608316 59.00653127380417 94.88241518673948 C 0.0 **** -0.24
18127 H 17.02037667907456 58.824057468918426 94.34524286043376 H 0.0 **** 0.06
18128 H 16.086347502983642 58.43316906188281 95.80894078715795 H 0.0 **** 0.06
18129 H 15.246631958094667 58.700513996434694 94.26205279321334 H 0.0 **** 0.06
18130 H 16.005346219421114 60.06904015575094 95.11049709538008 H 0.0 **** 0.06
18131 C 45.793076487733 25.569243901726765 90.80742500840887 C 0.0 **** -0.24
18132 H 46.21730511478415 24.867371959212946 91.52552028233103 H 0.0 **** 0.06
18133 H 45.48596183954612 25.03039122175398 89.91106104762773 H 0.0 **** 0.06
18134 H 46.54198719380338 26.316331517815534 90.54448430033617 H 0.0 **** 0.06
18135 H 44.92710498723147 26.062131151413915 91.25074042483612 H 0.0 **** 0.06
18136 C 40.63456108239285 112.79566944590971 31.513871140312403 C 0.0 **** -0.24
18137 H 39.86641496512374 113.53659035974613 31.732637307145694 H 0.0 **** 0.06
18138 H 41.51653188958704 113.29336555185725 31.110138463870044 H 0.0 **** 0.06
18139 H 40.253692759994294 112.08146545251003 30.783406919234835 H 0.0 **** 0.06
18140 H 40.901814011107945 112.26860025837914 32.43068082911935 H 0.0 **** 0.06
18141 C 83.12866279024661 89.7322226345849 19.67584088815201 C 0.0 **** -0.24
18142 H 82.70841022428928 90.65455095659976 20.07799790530794 H 0.0 **** 0.06
18143 H 82.32407900628888 89.10036709293976 19.2994229222287 H 0.0 **** 0.06
18144 H 83.6666547369154 89.20526058404619 20.46368136141612 H 0.0 **** 0.06
18145 H 83.81514430097891 89.97051535216278 18.863532653046093 H 0.0 **** 0.06
18146 C 66.39205178846285 4.453921905463751 11.246076232270283 C 0.0 **** -0.24
18147 H 66.9687327965226 3.5329797154715727 11.335471404628848 H 0.0 **** 0.06
18148 H 66.05166442035127 4.766706338851934 12.233347887175498 H 0.0 **** 0.06
18149 H 65.53030353280786 4.27992996082758 10.601918878769268 H 0.0 **** 0.06
18150 H 67.0185520646782 5.233937643052899 10.812972501377104 H 0.0 **** 0.06
18151 C 102.64630187186071 64.74224196096606 17.72585393217733 C 0.0 **** -0.24
18152 H 102.6861076713837 65.33439618162126 16.811598036859237 H 0.0 **** 0.06
18153 H 103.63989941838713 64.35174705019719 17.949238564012347 H 0.0 **** 0.06
18154 H 101.95132720825018 63.914118271056054 17.59152499951884 H 0.0 **** 0.06
18155 H 102.30827245193854 65.37039178522372 18.551060556897937 H 0.0 **** 0.06
18156 C 82.77344841831072 28.170974458854033 76.40391615721364 C 0.0 **** -0.24
18157 H 81.86894912061047 27.593676351929616 76.21198416697348 H 0.0 **** 0.06
18158 H 82.54772718867451 29.234512497707527 76.32768152944044 H 0.0 **** 0.06
18159 H 83.53530309833408 27.90723261060984 75.66975834063439 H 0.0 **** 0.06
18160 H 83.14103351783874 27.94789150556244 77.40602054978928 H 0.0 **** 0.06
18161 C 65.38977544007071 108.22032815456572 70.2725426912933 C 0.0 **** -0.24
18162 H 64.5781189397052 107.57551689941857 70.61169195382203 H 0.0 **** 0.06
18163 H 66.27949801768003 107.61679083595817 70.08815042608205 H 0.0 **** 0.06
18164 H 65.60698412254186 108.9636512301945 71.03867719363154 H 0.0 **** 0.06
18165 H 65.09318749670436 108.7228544616223 69.35182456146026 H 0.0 **** 0.06
18166 C 62.353132092782516 3.155343142117829 3.65357020409931 C 0.0 **** -0.24
18167 H 62.59021862360544 3.3024313889532095 2.599674091888403 H 0.0 **** 0.06
18168 H 61.29411765653094 2.9182222407443987 3.7576859801375093 H 0.0 **** 0.06
18169 H 62.57840157477506 4.066700453140555 4.2065262764856755 H 0.0 **** 0.06
18170 H 62.95076251973498 2.333428961459589 4.048468861315129 H 0.0 **** 0.06
18171 C 101.87807283371941 95.67406629652379 12.87139319721733 C 0.0 **** -0.24
18172 H 101.98088855647546 96.58981977782844 12.289706493772673 H 0.0 **** 0.06
18173 H 102.63814398420476 94.95793135259925 12.558764720137127 H 0.0 **** 0.06
18174 H 100.88741668498739 95.24826838999618 12.706170277145233 H 0.0 **** 0.06
18175 H 102.00307750950472 95.9001577158366 13.929769499317473 H 0.0 **** 0.06
18176 C 114.2664746014706 107.61826744955795 70.19797327518606 C 0.0 **** -0.24
18177 H 113.35855712997684 108.05206715350766 69.78015203684853 H 0.0 **** 0.06
18178 H 114.54355044891273 108.15662457445981 71.10481372191654 H 0.0 **** 0.06
18179 H 115.07404807305097 107.69420221999823 69.46944256308024 H 0.0 **** 0.06
18180 H 114.090452594822 106.56898975635502 70.43718574168014 H 0.0 **** 0.06
18181 C 10.48967430928684 91.09322950019126 18.565607644687617 C 0.0 **** -0.24
18182 H 11.326807697217305 91.76449518650799 18.375331516387718 H 0.0 **** 0.06
18183 H 10.277510378169893 91.06939996865628 19.634115734468622 H 0.0 **** 0.06
18184 H 10.744441883683407 90.08979718684614 18.222457351079896 H 0.0 **** 0.06
18185 H 9.61025599462755 91.4489211280785 18.027558452041177 H 0.0 **** 0.06
18186 C 82.6053396171863 41.39156929857063 42.423353190390344 C 0.0 **** -0.24
18187 H 83.00488230148031 42.3980258096567 42.545065389405295 H 0.0 **** 0.06
18188 H 82.86527484978811 41.01495541321316 41.43363572040684 H 0.0 **** 0.06
18189 H 81.52065294343873 41.41658372465838 42.53021802050253 H 0.0 **** 0.06
18190 H 83.03032887338395 40.73804564555189 43.18491074419222 H 0.0 **** 0.06
18191 C 33.688042694848264 107.69722495885065 26.39860561387627 C 0.0 **** -0.24
18192 H 33.91777228582333 106.95974713994818 27.167425960602515 H 0.0 **** 0.06
18193 H 33.93159104598578 107.28890051238787 25.41823157368222 H 0.0 **** 0.06
18194 H 34.27476200287481 108.59909070762397 26.57339575371323 H 0.0 **** 0.06
18195 H 32.626040415619684 107.94238696191775 26.436943494553446 H 0.0 **** 0.06
18196 C 88.0104535828099 34.585242265386 95.79851065505198 C 0.0 **** -0.24
18197 H 87.9327441639218 35.45304298145061 96.45426837603173 H 0.0 **** 0.06
18198 H 88.71696335914623 34.79938736714291 94.99650143803242 H 0.0 **** 0.06
18199 H 87.03194613754445 34.36368194160744 95.37249050853748 H 0.0 **** 0.06
18200 H 88.3601153281781 33.72648500400339 96.37231432003296 H 0.0 **** 0.06
18201 C 102.65711108494159 11.478191577627229 72.23927073396257 C 0.0 **** -0.24
18202 H 102.51928172000731 10.843292742779369 73.11510722764683 H 0.0 **** 0.06
18203 H 103.71039087795512 11.486062704856664 71.95989705254928 H 0.0 **** 0.06
18204 H 102.33458395157746 12.492691443439938 72.47230979332898 H 0.0 **** 0.06
18205 H 102.06371366885162 11.088930175614294 71.41212986591017 H 0.0 **** 0.06
18206 C 65.24591780322112 13.294255085714546 81.84713766109007 C 0.0 **** -0.24
18207 H 64.5297602675243 13.20887316904097 82.66520266650272 H 0.0 **** 0.06
18208 H 66.23504086199765 13.513273500914323 82.25116805486695 H 0.0 **** 0.06
18209 H 64.93922590051153 14.099899050821449 81.17986645739802 H 0.0 **** 0.06
18210 H 65.27808979675814 12.356181233347574 81.29337566302061 H 0.0 **** 0.06
18211 C 12.582492732523885 22.64809853834953 105.10783950560696 C 0.0 **** -0.24
18212 H 12.143273808840775 22.889986588112265 104.14022912432529 H 0.0 **** 0.06
18213 H 12.838157566817443 23.568834571997044 105.63261816170407 H 0.0 **** 0.06
18214 H 13.483194127720058 22.051684580528644 104.95817846685898 H 0.0 **** 0.06
18215 H 11.865099783412369 22.079071612313754 105.70025638139782 H 0.0 **** 0.06
18216 C 11.896503421929111 68.85017372283929 16.272057934751132 C 0.0 **** -0.24
18217 H 12.566727892169865 68.91938435284925 17.129238808923134 H 0.0 **** 0.06
18218 H 11.586389256819842 69.85111953348121 15.97229862567238 H 0.0 **** 0.06
18219 H 11.019167333558741 68.2644200934717 16.54512935008438 H 0.0 **** 0.06
18220 H 12.414499625870064 68.36507944981898 15.444380776595551 H 0.0 **** 0.06
18221 C 95.3700436165677 21.663793120803348 78.93045853959916 C 0.0 **** -0.24
18222 H 95.01222656922877 21.248681707956592 77.9877934394307 H 0.0 **** 0.06
18223 H 94.97469914053997 21.07555765065112 79.75859907362181 H 0.0 **** 0.06
18224 H 95.03223575621362 22.696216968624356 79.02357055228731 H 0.0 **** 0.06
18225 H 96.45941834126529 21.63403864791053 78.9501395060066 H 0.0 **** 0.06
18226 C 22.927023235208765 37.011304131109966 60.258114214539226 C 0.0 **** -0.24
18227 H 23.875164966588557 37.549353369547134 60.25234682714498 H 0.0 **** 0.06
18228 H 22.483054279526186 37.06777689004343 61.251394783960954 H 0.0 **** 0.06
18229 H 23.101522619015327 35.967938440804176 59.996458079214285 H 0.0 **** 0.06
18230 H 22.250335099975672 37.46005805729783 59.5308233136167 H 0.0 **** 0.06
18231 C 62.85834907929001 42.15062349361284 82.61695515643237 C 0.0 **** -0.24
18232 H 63.47971489355808 41.86156422819866 81.76928762942163 H 0.0 **** 0.06
18233 H 61.90241969203743 41.62954247374745 82.56156960309727 H 0.0 **** 0.06
18234 H 62.68742246474673 43.22765137311532 82.59149722828852 H 0.0 **** 0.06
18235 H 63.364382781941515 41.88590072416281 83.54533046207268 H 0.0 **** 0.06
18236 C 81.51037849444509 21.421558959251705 74.53141135488738 C 0.0 **** -0.24
18237 H 81.79108283038755 21.6372358472362 73.49982442147589 H 0.0 **** 0.06
18238 H 81.55028417876593 22.339397060257085 75.11810951374787 H 0.0 **** 0.06
18239 H 82.20091704110075 20.69074620738275 74.9510160956913 H 0.0 **** 0.06
18240 H 80.49735264735119 21.019520688327987 74.5544513987764 H 0.0 **** 0.06
18241 C 8.425841249598339 21.664281064295785 105.13323260560287 C 0.0 **** -0.24
18242 H 9.197470710238711 22.433288850373668 105.15833092803467 H 0.0 **** 0.06
18243 H 8.566654211382058 20.98099787314479 105.97032801049676 H 0.0 **** 0.06
18244 H 8.495527140237076 21.11043637775989 104.19672476435181 H 0.0 **** 0.06
18245 H 7.444128947107345 22.1325177378005 105.20664483155542 H 0.0 **** 0.06
18246 C 11.339994644405635 24.391807329443736 94.02023266671281 C 0.0 **** -0.24
18247 H 10.448496536717641 23.92334222362905 93.60303661656414 H 0.0 **** 0.06
18248 H 11.139965140279628 25.446309276923103 94.21294194193456 H 0.0 **** 0.06
18249 H 12.162837362293772 24.301503440497697 93.31091253483817 H 0.0 **** 0.06
18250 H 11.608026866513114 23.89630152120867 94.95245130432127 H 0.0 **** 0.06
18251 C 115.35137815907989 114.69073031081814 44.459740191643164 C 0.0 **** -0.24
18252 H 116.09449864002924 114.99064325832506 43.72103177402647 H 0.0 **** 0.06
18253 H 114.6079391635232 114.04869701184414 43.985962034717375 H 0.0 **** 0.06
18254 H 114.86281855523104 115.57769514803718 44.863805643037665 H 0.0 **** 0.06
18255 H 115.8415799220509 114.14603039620496 45.26768468025233 H 0.0 **** 0.06
18256 C 110.0289047304208 28.05371539619464 35.62279390091228 C 0.0 **** -0.24
18257 H 109.02057159039558 28.221197341484476 36.0012962641243 H 0.0 **** 0.06
18258 H 110.6054887487334 27.49774720590289 36.36238110457714 H 0.0 **** 0.06
18259 H 110.50949743288582 29.01364248052954 35.43266594406202 H 0.0 **** 0.06
18260 H 109.97759890943799 27.482959044627464 34.69640371444304 H 0.0 **** 0.06
18261 C 26.379285902977927 13.81506109815059 107.78159563185818 C 0.0 **** -0.24
18262 H 27.309785433084073 13.565276528926194 108.29061057582754 H 0.0 **** 0.06
18263 H 25.62486524619578 13.06321486815214 108.01193157798974 H 0.0 **** 0.06
18264 H 26.54935582939825 13.842289955882535 106.70499923076594 H 0.0 **** 0.06
18265 H 26.0324167742543 14.792187907576825 108.11860305610756 H 0.0 **** 0.06
18266 C 57.9034658742024 85.84840952704295 7.259858312367035 C 0.0 **** -0.24
18267 H 58.61021264077511 86.67812490607201 7.2820028559099885 H 0.0 **** 0.06
18268 H 57.83932907592686 85.45451427926363 6.245455542032394 H 0.0 **** 0.06
18269 H 56.92147064989262 86.19904884754561 7.5767816286973755 H 0.0 **** 0.06
18270 H 58.244469411358345 85.06253693771151 7.934174895356243 H 0.0 **** 0.06
18271 C 20.869201384617288 35.26731196551246 72.96118683563625 C 0.0 **** -0.24
18272 H 21.75554495748042 35.8951511902239 72.86410950367497 H 0.0 **** 0.06
18273 H 21.100371913327173 34.25823884574558 72.61913768185022 H 0.0 **** 0.06
18274 H 20.063565724430635 35.68181268594367 72.35450294033492 H 0.0 **** 0.06
18275 H 20.5598066250734 35.23600006933384 74.00526218614058 H 0.0 **** 0.06
18276 C 87.40203319748724 91.54597486468273 8.063387511229024 C 0.0 **** -0.24
18277 H 87.9467760497833 91.51013882118889 7.120489897981486 H 0.0 **** 0.06
18278 H 86.9587376616264 90.5710402298173 8.264905408139128 H 0.0 **** 0.06
18279 H 86.61488265217804 92.29760232776579 7.999801588989186 H 0.0 **** 0.06
18280 H 88.08802041079014 91.80725893203913 8.869509200634042 H 0.0 **** 0.06
18281 C 4.283524767372796 99.37114466287579 74.41920876338412 C 0.0 **** -0.24
18282 H 4.6502667837204825 99.24779769247124 75.43807124957223 H 0.0 **** 0.06
18283 H 3.992122502736237 100.40956367479765 74.26153619001619 H 0.0 **** 0.06
18284 H 3.420439549971391 98.72361599488823 74.26252904241215 H 0.0 **** 0.06
18285 H 5.071182881526454 99.10268443501872 73.71508819430508 H 0.0 **** 0.06
18286 C 102.38418385856562 40.4141730210668 55.06607787651407 C 0.0 **** -0.24
18287 H 101.55876950946845 39.73590468966219 55.28370651429279 H 0.0 **** 0.06
18288 H 102.22050524054006 40.88365126381447 54.095877651148356 H 0.0 **** 0.06
18289 H 103.3188248444877 39.85475834085756 55.0462956144873 H 0.0 **** 0.06
18290 H 102.43622458917187 41.18241707951091 55.83800198760235 H 0.0 **** 0.06
18291 C 31.851347773426674 62.59476347137155 54.79077009162242 C 0.0 **** -0.24
18292 H 31.732337262559355 61.74261820285284 54.122144738611865 H 0.0 **** 0.06
18293 H 30.88023161739521 63.06212039571079 54.95840949184773 H 0.0 **** 0.06
18294 H 32.53045521163131 63.318213304192625 54.340409846108486 H 0.0 **** 0.06
18295 H 32.260401830072105 62.25507895651833 55.742419285695405 H 0.0 **** 0.06
18296 C 14.408139939982846 98.13503677703227 32.65344230899103 C 0.0 **** -0.24
18297 H 14.082319028356068 98.8008541006771 31.853551029031905 H 0.0 **** 0.06
18298 H 13.595761537842549 98.00396901767556 33.36893905657645 H 0.0 **** 0.06
18299 H 15.272000024507463 98.56892374215914 33.15787057040242 H 0.0 **** 0.06
18300 H 14.681686127433068 97.16767557228181 32.23208764698134 H 0.0 **** 0.06
18301 C 46.02876706941322 76.641764711201 67.68814072017736 C 0.0 **** -0.24
18302 H 45.173059040054454 76.0411310120418 67.99674386464537 H 0.0 **** 0.06
18303 H 46.78925370445876 76.61863141062699 68.46869302181977 H 0.0 **** 0.06
18304 H 45.709846409013494 77.67059280702861 67.52118466275456 H 0.0 **** 0.06
18305 H 46.443586847540246 76.23568785359134 66.76522786416868 H 0.0 **** 0.06
18306 C 112.9752181244821 12.540533497444923 49.0153951707469 C 0.0 **** -0.24
18307 H 112.88162727765496 13.502267094179729 49.519914957313006 H 0.0 **** 0.06
18308 H 112.22538642691981 12.469377055431202 48.22790414625024 H 0.0 **** 0.06
18309 H 112.82493707512995 11.736465422843725 49.73576806006628 H 0.0 **** 0.06
18310 H 113.97042885018067 12.455882591756904 48.578518961406246 H 0.0 **** 0.06
18311 C 62.00273057893406 108.52315330672201 70.76709617497394 C 0.0 **** -0.24
18312 H 62.31053678560525 108.08976116284379 69.8155066869821 H 0.0 **** 0.06
18313 H 62.86375206858358 108.98439752955382 71.25173911328363 H 0.0 **** 0.06
18314 H 61.60104828211786 107.73924653255284 71.41019145887208 H 0.0 **** 0.06
18315 H 61.23645987886451 109.27783799294315 70.59211286276468 H 0.0 **** 0.06
18316 C 46.51467262883875 77.24829168719211 42.896497402673646 C 0.0 **** -0.24
18317 H 46.53767126231918 77.22335267569346 43.98628780177802 H 0.0 **** 0.06
18318 H 47.14427784795777 76.4511811085053 42.500925704859156 H 0.0 **** 0.06
18319 H 46.88572415038641 78.21211296945376 42.54782954474666 H 0.0 **** 0.06
18320 H 45.489771856633695 77.10797055666862 42.55247796492607 H 0.0 **** 0.06
18321 C 110.97052099615377 109.52977996169014 105.87612694944156 C 0.0 **** -0.24
18322 H 110.80866540204664 110.56059582399928 105.56009305557271 H 0.0 **** 0.06
18323 H 110.97500457666281 108.87840546743007 105.00225274623705 H 0.0 **** 0.06
18324 H 110.169326005325 109.22780877079137 106.55089355328582 H 0.0 **** 0.06
18325 H 111.92755872503636 109.45359939435096 106.39226769894154 H 0.0 **** 0.06
18326 C 29.561151911338413 52.75219117185807 5.579244762446535 C 0.0 **** -0.24
18327 H 29.03640956819484 52.08828767143001 4.89339894297467 H 0.0 **** 0.06
18328 H 30.237812829898644 53.39596530273094 5.0151171373887 H 0.0 **** 0.06
18329 H 30.13372183529006 52.15957307878266 6.292926385427222 H 0.0 **** 0.06
18330 H 28.837860054327678 53.36666901897818 6.114778885616261 H 0.0 **** 0.06
18331 C 75.9868064113681 30.149126230904983 59.77707233450067 C 0.0 **** -0.24
18332 H 75.08580637842218 30.755611046790477 59.69025056609536 H 0.0 **** 0.06
18333 H 76.639202439777 30.344347756642613 58.925408081936865 H 0.0 **** 0.06
18334 H 75.71529328605246 29.092983135803642 59.79231784090524 H 0.0 **** 0.06
18335 H 76.50830249543753 30.40325062886773 60.700280671435536 H 0.0 **** 0.06
18336 C 108.8531950286922 14.407004929283431 56.665753646370014 C 0.0 **** -0.24
18337 H 108.16364225291264 13.595251927043222 56.432436175551025 H 0.0 **** 0.06
18338 H 108.5353235281438 15.312676617626607 56.14955751463416 H 0.0 **** 0.06
18339 H 109.85659621341358 14.134516876636184 56.33793767119486 H 0.0 **** 0.06
18340 H 108.8562607081104 14.581916178660691 57.74143928750021 H 0.0 **** 0.06
18341 C 57.854276437481595 60.59622613117213 2.0431338125176097 C 0.0 **** -0.24
18342 H 57.80482080630832 60.47580715592551 0.9605039448831718 H 0.0 **** 0.06
18343 H 56.8531832006961 60.77756844321317 2.4338117350469446 H 0.0 **** 0.06
18344 H 58.498473662476606 61.441181980003165 2.2857126567701727 H 0.0 **** 0.06
18345 H 58.26124778001171 59.689762663218886 2.4904393358362995 H 0.0 **** 0.06
18346 C 30.04888644345425 70.01680562076001 54.952605346850646 C 0.0 **** -0.24
18347 H 31.109483446974025 70.19818876857795 54.77559355929185 H 0.0 **** 0.06
18348 H 29.85075615618331 70.04257035008865 56.02466299387396 H 0.0 **** 0.06
18349 H 29.777714979118286 69.03867955075293 54.55595768978009 H 0.0 **** 0.06
18350 H 29.461200711536833 70.78733248120312 54.45508377274109 H 0.0 **** 0.06
18351 C 64.48070997932649 19.894507901153247 20.980268253810493 C 0.0 **** -0.24
18352 H 63.59916783880578 19.44671749333429 20.52184033992694 H 0.0 **** 0.06
18353 H 64.17051716548903 20.645894895050333 21.706548488647456 H 0.0 **** 0.06
18354 H 65.09213437072276 20.363668814923926 20.209680039605104 H 0.0 **** 0.06
18355 H 65.06007244935012 19.119725292509827 21.48302270507878 H 0.0 **** 0.06
18356 C 95.32057528586458 57.130804719597116 53.66182607184851 C 0.0 **** -0.24
18357 H 94.27043241069143 56.83951657064143 53.70710536019931 H 0.0 **** 0.06
18358 H 95.53545161778578 57.83932363425803 54.461817370542974 H 0.0 **** 0.06
18359 H 95.5265158636114 57.59718333535543 52.697734527756495 H 0.0 **** 0.06
18360 H 95.9477533240478 56.24750457735578 53.780107520252386 H 0.0 **** 0.06
18361 C 11.829347055904577 4.296690226643662 86.47516451530518 C 0.0 **** -0.24
18362 H 12.109659254776972 3.727101948606432 87.36137851097885 H 0.0 **** 0.06
18363 H 10.855575929502521 3.9595321765688 86.11883706369133 H 0.0 **** 0.06
18364 H 12.574754597408628 4.143091830606835 85.69400821075382 H 0.0 **** 0.06
18365 H 11.77850983084241 5.355782558821403 86.72599098899477 H 0.0 **** 0.06
18366 C 73.69131647203255 52.28326497215505 10.30225789952513 C 0.0 **** -0.24
18367 H 73.99364567431184 51.369436144433564 10.81498001327465 H 0.0 **** 0.06
18368 H 74.5495511652345 52.705950501201414 9.779491083305743 H 0.0 **** 0.06
18369 H 73.31919503744999 53.00289172017551 11.031941382805229 H 0.0 **** 0.06
18370 H 72.90467378161625 52.05317257652598 9.584093086986087 H 0.0 **** 0.06
18371 C 96.28069774963106 44.2114868332969 103.77919910230491 C 0.0 **** -0.24
18372 H 97.06325049983158 44.484049022073094 104.48752108339113 H 0.0 **** 0.06
18373 H 96.29162586107216 44.90749782566439 102.940423661723 H 0.0 **** 0.06
18374 H 95.31123354733847 44.25353829117495 104.27455325533958 H 0.0 **** 0.06
18375 H 96.45836574910925 43.19944001195023 103.41392476144637 H 0.0 **** 0.06
18376 C 56.89118023488936 45.57428387372403 73.54944380483664 C 0.0 **** -0.24
18377 H 57.176506700961596 45.14509728193727 74.50960921206106 H 0.0 **** 0.06
18378 H 57.786015023041585 45.77472602799659 72.96064113796285 H 0.0 **** 0.06
18379 H 56.3476164543778 46.504890550156915 73.71477268148087 H 0.0 **** 0.06
18380 H 56.2531931041982 44.87143546838146 73.013062837832 H 0.0 **** 0.06
18381 C 1.8842185725711431 21.025765247968877 78.00695850991394 C 0.0 **** -0.24
18382 H 2.714511119536269 20.403667223214 78.34305875096268 H 0.0 **** 0.06
18383 H 1.3719161591613442 20.530758833666397 77.18220592335231 H 0.0 **** 0.06
18384 H 2.266388224455568 21.990039612241844 77.67223584538485 H 0.0 **** 0.06
18385 H 1.1868684483160052 21.176882703395137 78.83074990620798 H 0.0 **** 0.06
18386 C 87.08040211788827 35.98404103234469 38.00969767452092 C 0.0 **** -0.24
18387 H 87.59938237282748 36.9378218274511 38.106937984429536 H 0.0 **** 0.06
18388 H 86.34242479290918 35.889067341125724 38.805918373688 H 0.0 **** 0.06
18389 H 87.80170760845388 35.16945834247878 38.08219907343028 H 0.0 **** 0.06
18390 H 86.58100476260606 35.94079307356799 37.04213123071939 H 0.0 **** 0.06
18391 C 64.27910050489476 67.44280395578926 40.583138993037664 C 0.0 **** -0.24
18392 H 63.507753068538534 68.03494049259183 41.07666962201898 H 0.0 **** 0.06
18393 H 64.78584408731581 66.8205529851644 41.32147001328207 H 0.0 **** 0.06
18394 H 65.00064708500435 68.10735722415274 40.10981843942443 H 0.0 **** 0.06
18395 H 63.819183164802894 66.8070492800353 39.826447504583825 H 0.0 **** 0.06
18396 C 43.05924303413998 73.87433191680927 109.99149823558976 C 0.0 **** -0.24
18397 H 44.02630734269866 74.29693571533863 109.71812185883219 H 0.0 **** 0.06
18398 H 42.596335387748354 74.49447285229834 110.76002265078215 H 0.0 **** 0.06
18399 H 43.199375000833115 72.86401502383939 110.37467276576643 H 0.0 **** 0.06
18400 H 42.41555299340213 73.84348651961241 109.11280453645449 H 0.0 **** 0.06
18401 C 71.5377279138761 26.06370512010311 38.586295542452746 C 0.0 **** -0.24
18402 H 70.45163757623163 26.055397733859436 38.48875173997601 H 0.0 **** 0.06
18403 H 71.98601158479164 26.335000497500786 37.6306086052503 H 0.0 **** 0.06
18404 H 71.88357697342747 25.0740461624721 38.88248207676175 H 0.0 **** 0.06
18405 H 71.8280991637098 26.792221167960804 39.34362169352042 H 0.0 **** 0.06
18406 C 103.76546225306754 40.3094889649814 64.49508671655101 C 0.0 **** -0.24
18407 H 103.79696615372518 40.2540224152369 65.58278744597155 H 0.0 **** 0.06
18408 H 102.97937318379797 39.65349046366747 64.12093044433163 H 0.0 **** 0.06
18409 H 104.72655358243946 39.9951497387336 64.08786038335012 H 0.0 **** 0.06
18410 H 103.55999183057588 41.33503917222902 64.18969746861595 H 0.0 **** 0.06
18411 C 97.9537908880607 15.871785642965378 101.5888202854886 C 0.0 **** -0.24
18412 H 97.67312785423007 16.03150637672715 100.54805687468632 H 0.0 **** 0.06
18413 H 99.03990973413141 15.814335041549 101.66728240645281 H 0.0 **** 0.06
18414 H 97.5137491652383 14.941260785727948 101.94512442876496 H 0.0 **** 0.06
18415 H 97.58878531801292 16.70205593548677 102.19393942902951 H 0.0 **** 0.06
18416 C 24.160414513197566 5.174885867498233 114.4166080227603 C 0.0 **** -0.24
18417 H 24.737252324372776 4.296426427375366 114.12872076870968 H 0.0 **** 0.06
18418 H 24.837888084958138 6.0049388841189 114.61536787126005 H 0.0 **** 0.06
18419 H 23.58412199819486 4.951744267096643 115.3148188903109 H 0.0 **** 0.06
18420 H 23.48114255687517 5.444345562954027 113.60778724323326 H 0.0 **** 0.06
18421 C 106.96407292080332 76.15998135314425 48.60563305209823 C 0.0 **** -0.24
18422 H 106.6591454155496 76.06303163381875 47.56410298565007 H 0.0 **** 0.06
18423 H 106.45422410461816 75.40592481321659 49.205275349974045 H 0.0 **** 0.06
18424 H 106.70085530310365 77.15366580687277 48.97008708164583 H 0.0 **** 0.06
18425 H 108.04192287909888 76.01827921851617 48.684080049624725 H 0.0 **** 0.06
18426 C 64.1144338462851 69.5969036874672 5.081751966598453 C 0.0 **** -0.24
18427 H 64.72962080022705 68.95488898534035 4.451938460219207 H 0.0 **** 0.06
18428 H 63.06085313400839 69.41949536549333 4.863447141065022 H 0.0 **** 0.06
18429 H 64.35595533759349 70.64134146070188 4.880664521973811 H 0.0 **** 0.06
18430 H 64.31124740886455 69.37385200953645 6.12988853993285 H 0.0 **** 0.06
18431 C 113.67614616757072 99.69769317848744 16.14137824419305 C 0.0 **** -0.24
18432 H 114.48187802423763 99.87045833437904 15.425929081194738 H 0.0 **** 0.06
18433 H 113.2947781153515 100.6553578548085 16.496279309095314 H 0.0 **** 0.06
18434 H 114.05749956637766 99.12221795928778 16.985008397079298 H 0.0 **** 0.06
18435 H 112.87319700637653 99.14335627462088 15.656306949558541 H 0.0 **** 0.06
18436 C 58.831010968966325 109.9604015785107 101.51202221298041 C 0.0 **** -0.24
18437 H 58.8076941141328 110.43868762402961 100.53242801390581 H 0.0 **** 0.06
18438 H 57.937383534952346 110.23813963803586 102.07211918766464 H 0.0 **** 0.06
18439 H 59.717137260443394 110.287293495657 102.0546378623012 H 0.0 **** 0.06
18440 H 58.85958204866728 108.87756709067641 101.38691752633889 H 0.0 **** 0.06
18441 C 23.797377766238725 45.30283266602336 63.600314969242966 C 0.0 **** -0.24
18442 H 24.027528801147923 45.33166350952388 62.535014409974075 H 0.0 **** 0.06
18443 H 23.557390115492524 46.30955962965707 63.94585057078712 H 0.0 **** 0.06
18444 H 24.65962848766148 44.92544182372326 64.14863761255594 H 0.0 **** 0.06
18445 H 22.943470614906516 44.64730236134086 63.769561913447866 H 0.0 **** 0.06
18446 C 75.87728467950171 79.11675486846238 94.68139183272865 C 0.0 **** -0.24
18447 H 76.78986964667544 78.52171334191121 94.6809993707661 H 0.0 **** 0.06
18448 H 75.0919563766185 78.57800253412987 95.21192021526852 H 0.0 **** 0.06
18449 H 75.56227027047916 79.30027795478571 93.65385536061405 H 0.0 **** 0.06
18450 H 76.06486520312953 80.06869808971064 95.17920673786577 H 0.0 **** 0.06
18451 C 82.12466704662941 37.70962301838425 57.023522222959166 C 0.0 **** -0.24
18452 H 82.45719163832871 36.78157664514163 56.55885108060665 H 0.0 **** 0.06
18453 H 82.46175683665112 38.556280229222295 56.42458560795142 H 0.0 **** 0.06
18454 H 82.54446878190129 37.783785832227466 58.026777601331595 H 0.0 **** 0.06
18455 H 81.03640135043389 37.71603304114754 57.08397589498933 H 0.0 **** 0.06
18456 C 45.24187058755068 108.8783880241781 49.07593722013209 C 0.0 **** -0.24
18457 H 44.43013711743184 109.58121633623705 48.89157065324497 H 0.0 **** 0.06
18458 H 45.93493472674952 108.8952157044798 48.234225897139254 H 0.0 **** 0.06
18459 H 44.8335885447279 107.87428393188551 49.19030375639278 H 0.0 **** 0.06
18460 H 45.76903659848064 109.16186539526583 49.9866427246136 H 0.0 **** 0.06
18461 C 35.43912993919909 87.95815870282075 25.544853801960215 C 0.0 **** -0.24
18462 H 35.94229869628768 87.01412297220887 25.751049429048244 H 0.0 **** 0.06
18463 H 36.16737971323616 88.68740822284065 25.187756531608706 H 0.0 **** 0.06
18464 H 34.973089794843474 88.32783649944221 26.458374404698915 H 0.0 **** 0.06
18465 H 34.67446784590385 87.80368119853665 24.783381828128633 H 0.0 **** 0.06
18466 C 7.780304699161235 43.75344363523184 77.74812503222998 C 0.0 **** -0.24
18467 H 8.12199807138046 44.51189420507252 78.4533011845694 H 0.0 **** 0.06
18468 H 7.889204233480768 44.128716821808666 76.73017172314545 H 0.0 **** 0.06
18469 H 6.731361999311616 43.525438455251226 77.9417610617875 H 0.0 **** 0.06
18470 H 8.376542513634234 42.84959470625258 77.86972477213024 H 0.0 **** 0.06
18471 C 114.2540646626438 112.79858773667222 41.07199742795521 C 0.0 **** -0.24
18472 H 114.39010705671176 112.8275172115181 39.99036413249874 H 0.0 **** 0.06
18473 H 114.31815075807936 111.76629542101588 41.41746170892728 H 0.0 **** 0.06
18474 H 113.27643281239078 113.20741011968757 41.32544985702657 H 0.0 **** 0.06
18475 H 115.03179256669318 113.39184290494694 41.55183335517009 H 0.0 **** 0.06
18476 C 84.12863139564212 0.34199784096810504 48.94065789956588 C 0.0 **** -0.24
18477 H 84.85949398715985 -0.41614275606329443 48.65883226579635 H 0.0 **** 0.06
18478 H 83.12703156025987 -0.0065800248195273525 48.690014381108966 H 0.0 **** 0.06
18479 H 84.33825704487145 1.2655358117632147 48.401558063138026 H 0.0 **** 0.06
18480 H 84.19189994789656 0.5254504429832139 50.013355532664406 H 0.0 **** 0.06
18481 C 75.16325509705183 107.44058683644087 96.72958343696763 C 0.0 **** -0.24
18482 H 74.66597490551857 107.17493958753994 95.79682896604524 H 0.0 **** 0.06
18483 H 76.01119289127513 106.77558471331471 96.89211531681627 H 0.0 **** 0.06
18484 H 74.46021475286 107.34281466429786 97.55706266200693 H 0.0 **** 0.06
18485 H 75.51607654774472 108.47117062995099 96.67196279436638 H 0.0 **** 0.06
18486 C 30.941138619799602 27.695611060717084 109.9703081593749 C 0.0 **** -0.24
18487 H 31.631171903231603 28.42659406089146 109.54822651158815 H 0.0 **** 0.06
18488 H 31.272785724735 27.419037765446518 110.97108404412 H 0.0 **** 0.06
18489 H 30.91759459591927 26.809685775589173 109.33640597141721 H 0.0 **** 0.06
18490 H 29.94245340036248 28.130070604021284 110.02450002960671 H 0.0 **** 0.06
18491 C 100.09881623788061 86.52047429290306 64.10420417770115 C 0.0 **** -0.24
18492 H 100.2440988045905 87.35649731238186 63.41962146802953 H 0.0 **** 0.06
18493 H 99.03558795886596 86.28949651361256 64.17593218234245 H 0.0 **** 0.06
18494 H 100.48075964190937 86.78637794816456 65.08945155821596 H 0.0 **** 0.06
18495 H 100.63452347502573 85.6479868312662 63.72992839430259 H 0.0 **** 0.06
18496 C 29.08755282772841 30.69076041521282 108.32979846350378 C 0.0 **** -0.24
18497 H 28.40668090404386 31.52918501818543 108.4759920442747 H 0.0 **** 0.06
18498 H 29.33186199219758 30.60126869039361 107.27121108389872 H 0.0 **** 0.06
18499 H 28.611318280512435 29.772323759557395 108.6727149549314 H 0.0 **** 0.06
18500 H 30.00120198970985 30.86231588948209 108.90030787109725 H 0.0 **** 0.06
18501 C 23.706869886218158 24.090156704359686 104.29907991625194 C 0.0 **** -0.24
18502 H 23.931882568634137 23.553596215080773 105.21973782524466 H 0.0 **** 0.06
18503 H 24.456672500727166 24.86582343337784 104.13918242688467 H 0.0 **** 0.06
18504 H 22.72058386458525 24.54827282563997 104.3771087828176 H 0.0 **** 0.06
18505 H 23.718834585841762 23.394556058156354 103.45993537805629 H 0.0 **** 0.06
18506 C 73.09162297383403 48.433625093518884 90.80899397310023 C 0.0 **** -0.24
18507 H 73.99898599248195 48.347016075266055 91.4075065036561 H 0.0 **** 0.06
18508 H 73.3251017012887 48.22806433174665 89.76361006803899 H 0.0 **** 0.06
18509 H 72.69264061936178 49.444283278535835 90.89982416374758 H 0.0 **** 0.06
18510 H 72.35170795077585 47.71715550990561 91.16465534714058 H 0.0 **** 0.06
18511 C 63.46227790396659 67.29915011246675 72.77886431470773 C 0.0 **** -0.24
18512 H 64.07312607095008 67.36150553362523 71.87949166920708 H 0.0 **** 0.06
18513 H 63.34672048825637 68.29411509270295 73.20985409729434 H 0.0 **** 0.06
18514 H 63.94650045808614 66.64417783068404 73.50277712648739 H 0.0 **** 0.06
18515 H 62.481492388823206 66.89795570899884 72.52476639644925 H 0.0 **** 0.06
18516 C 48.63771983525268 87.4554676871353 57.56467318433624 C 0.0 **** -0.24
18517 H 49.179996498497076 86.81985412002206 56.86562576122924 H 0.0 **** 0.06
18518 H 47.73471082684577 87.83526059570391 57.085825512769986 H 0.0 **** 0.06
18519 H 49.27156667854106 88.29183574720301 57.86021445480824 H 0.0 **** 0.06
18520 H 48.36592136498194 86.87671258163456 58.44726372757515 H 0.0 **** 0.06
18521 C 23.642014281034413 95.37031194912086 62.70302135432818 C 0.0 **** -0.24
18522 H 24.46011901415673 95.99791370883517 62.348699920964044 H 0.0 **** 0.06
18523 H 23.870706847785847 94.32496451867948 62.497667090325685 H 0.0 **** 0.06
18524 H 22.722292187401603 95.6501446586671 62.18968923245043 H 0.0 **** 0.06
18525 H 23.516969666625663 95.51111783214108 63.776742233662155 H 0.0 **** 0.06
18526 C 65.50880717995517 78.42286686484948 10.82517895062017 C 0.0 **** -0.24
18527 H 65.33594326106163 79.17653066451297 10.057928132018617 H 0.0 **** 0.06
18528 H 65.5737480593051 78.90541325275751 11.799653962010922 H 0.0 **** 0.06
18529 H 66.44083973244085 77.89799211721615 10.615465362837085 H 0.0 **** 0.06
18530 H 64.68327390700551 77.71040274460955 10.826025379845646 H 0.0 **** 0.06
18531 C 29.07253003382391 19.111607318046794 26.375138553489876 C 0.0 **** -0.24
18532 H 28.163952904379045 19.55310990341991 26.78496052579149 H 0.0 **** 0.06
18533 H 28.91588305519815 18.045652045168396 26.211065327999165 H 0.0 **** 0.06
18534 H 29.894717584105592 19.25554207596059 27.075465140587198 H 0.0 **** 0.06
18535 H 29.314115647712555 19.593296040804518 25.427474398175576 H 0.0 **** 0.06
18536 C 25.5050846697371 8.224043150747178 9.089890221406606 C 0.0 **** -0.24
18537 H 26.585080587511115 8.072202517453121 9.10589952669892 H 0.0 **** 0.06
18538 H 25.005063994336894 7.30574227581036 9.399143905077338 H 0.0 **** 0.06
18539 H 25.191573161298578 8.48673535967258 8.078827717700634 H 0.0 **** 0.06
18540 H 25.241982697159067 9.030736523222828 9.77342520042373 H 0.0 **** 0.06
18541 C 19.32475015287372 57.01148637243111 36.47461239235042 C 0.0 **** -0.24
18542 H 19.245328742172717 57.81943976158303 37.20161204712167 H 0.0 **** 0.06
18543 H 19.472103799643264 56.06548149652576 36.9967280012238 H 0.0 **** 0.06
18544 H 20.173702447468344 57.19819131068985 35.81520783839915 H 0.0 **** 0.06
18545 H 18.409995039837384 56.963302386452995 35.88440623040077 H 0.0 **** 0.06
18546 C 35.31500603627984 92.66564219518679 115.21595907960423 C 0.0 **** -0.24
18547 H 34.404070667650245 92.94161333886504 114.68387195886504 H 0.0 **** 0.06
18548 H 35.846683928604534 91.89989240669678 114.64985226243888 H 0.0 **** 0.06
18549 H 35.057137658465535 92.27629861835422 116.20035960158046 H 0.0 **** 0.06
18550 H 35.950749359863295 93.54415690357965 115.32697398559603 H 0.0 **** 0.06
18551 C 14.659617196016711 31.889807853703424 1.492045705820999 C 0.0 **** -0.24
18552 H 15.568351651619778 31.41826143693136 1.8639012345878285 H 0.0 **** 0.06
18553 H 14.85355585902009 32.33306769037199 0.5149400208911885 H 0.0 **** 0.06
18554 H 14.343924259804282 32.66867251440899 2.1865194660687024 H 0.0 **** 0.06
18555 H 13.871759765741956 31.142081495546883 1.4031361681301178 H 0.0 **** 0.06
18556 C 71.6448711541994 55.52162407418562 110.73267656058692 C 0.0 **** -0.24
18557 H 72.2360164311691 56.25459607798545 111.28228943113777 H 0.0 **** 0.06
18558 H 72.28458008850191 54.69205247742214 110.43287268494848 H 0.0 **** 0.06
18559 H 71.21648292858947 55.99074213294062 109.84729206498088 H 0.0 **** 0.06
18560 H 70.84310663561831 55.15057479429939 111.37162107440184 H 0.0 **** 0.06
18561 C 98.45173253012683 114.51472337380523 101.15954881409803 C 0.0 **** -0.24
18562 H 97.86007452127126 114.92197071790207 101.98064593569413 H 0.0 **** 0.06
18563 H 99.49599118958463 114.80012069430478 101.28822751916053 H 0.0 **** 0.06
18564 H 98.07975843928659 114.90881312387529 100.21396830879968 H 0.0 **** 0.06
18565 H 98.36883451059987 113.42729141950713 101.15824394628274 H 0.0 **** 0.06
18566 C 114.01373488642548 30.53152494405188 71.65932880434622 C 0.0 **** -0.24
18567 H 114.0297934483024 29.58759621890212 72.2039935076732 H 0.0 **** 0.06
18568 H 114.86314943485772 30.571129335186555 70.97773042104279 H 0.0 **** 0.06
18569 H 114.07571922882516 31.359591559649004 72.36594795914166 H 0.0 **** 0.06
18570 H 113.08627628733967 30.608316092638717 71.09129124490454 H 0.0 **** 0.06
18571 C 16.969576952585868 32.651835705266876 15.091116464389358 C 0.0 **** -0.24
18572 H 16.649657928101817 32.779204528982675 14.057676637029374 H 0.0 **** 0.06
18573 H 16.9673281749292 31.590295874158492 15.343037533176613 H 0.0 **** 0.06
18574 H 16.284864052262286 33.18402096619699 15.75222849471109 H 0.0 **** 0.06
18575 H 17.976216850678767 33.05141319525636 15.211900899291493 H 0.0 **** 0.06
18576 C 1.8709548444605986 97.75346501249402 38.02156043648483 C 0.0 **** -0.24
18577 H 1.1443407735215345 98.09874316152633 37.286359148420274 H 0.0 **** 0.06
18578 H 2.120434197859481 98.57195959238791 38.697655628321286 H 0.0 **** 0.06
18579 H 2.771915262078494 97.41539129487211 37.51069216658141 H 0.0 **** 0.06
18580 H 1.4454019746052325 96.92788556852355 38.59253621182921 H 0.0 **** 0.06
18581 C 23.407305341499928 40.73067345084509 10.847565632042858 C 0.0 **** -0.24
18582 H 23.358907423375605 39.709278740617826 10.470093181235598 H 0.0 **** 0.06
18583 H 24.364083921208916 40.88937261045557 11.345179235981107 H 0.0 **** 0.06
18584 H 22.59635669576742 40.89347269742146 11.558340375914497 H 0.0 **** 0.06
18585 H 23.307808350450703 41.429812547315926 10.017053225288862 H 0.0 **** 0.06
18586 C 6.8283307374301785 36.558997051269216 48.28306070546256 C 0.0 **** -0.24
18587 H 5.929280988633508 35.98063665015641 48.49506244982581 H 0.0 **** 0.06
18588 H 7.416045790503333 36.66576025894187 49.19492890386465 H 0.0 **** 0.06
18589 H 6.546927114479772 37.54595560358325 47.91445950820088 H 0.0 **** 0.06
18590 H 7.4209812038762095 36.04490506593024 47.52717463596335 H 0.0 **** 0.06
18591 C 94.84033634153747 113.2775950283514 26.778593390255025 C 0.0 **** -0.24
18592 H 95.56921627963499 112.64883247959736 26.266351542590144 H 0.0 **** 0.06
18593 H 94.5329271219423 114.08887487884662 26.119315379159218 H 0.0 **** 0.06
18594 H 95.29011539542142 113.69182793437415 27.681221164023697 H 0.0 **** 0.06
18595 H 93.96994757090641 112.67804884753747 27.048150105317177 H 0.0 **** 0.06
18596 C 103.34228827868523 76.64497112356432 15.380014862159328 C 0.0 **** -0.24
18597 H 103.50522236729302 76.11551174598841 16.318552125001617 H 0.0 **** 0.06
18598 H 103.70273421385423 76.0353856291469 14.551940489270095 H 0.0 **** 0.06
18599 H 103.8829471136795 77.59113827612524 15.398634651496309 H 0.0 **** 0.06
18600 H 102.27727372601814 76.8386136798101 15.253664136111894 H 0.0 **** 0.06
18601 C 18.072937576828934 72.37219453046654 57.469999244632845 C 0.0 **** -0.24
18602 H 17.275952151004333 72.3716878151244 58.21345531498048 H 0.0 **** 0.06
18603 H 18.304573614529033 73.39926515565452 57.18761005913461 H 0.0 **** 0.06
18604 H 17.749207204200474 71.81719607805013 56.590414549703496 H 0.0 **** 0.06
18605 H 18.961547736267676 71.90160366631446 57.891315297911774 H 0.0 **** 0.06
18606 C 1.7797796044090717 11.951446862565206 81.7152603413345 C 0.0 **** -0.24
18607 H 1.7369212069281161 12.354431796109225 82.72682409667141 H 0.0 **** 0.06
18608 H 2.1680707545563678 12.713527644396294 81.03735400295727 H 0.0 **** 0.06
18609 H 0.7791848351914155 11.658810732906375 81.39826014733939 H 0.0 **** 0.06
18610 H 2.4357572268355057 11.081849376563525 81.69804229690678 H 0.0 **** 0.06
18611 C 65.53387283850708 20.73385773897911 3.032053072154582 C 0.0 **** -0.24
18612 H 65.04951530515768 21.156160988376172 3.9129524753297176 H 0.0 **** 0.06
18613 H 66.46493298854426 21.26787132657782 2.8399918875259402 H 0.0 **** 0.06
18614 H 64.87300032672647 20.832458801730837 2.1716414019209935 H 0.0 **** 0.06
18615 H 65.74842797611728 19.6790324578821 3.2066003315753306 H 0.0 **** 0.06
18616 C 42.7924736763657 30.352128797326586 15.804216141911326 C 0.0 **** -0.24
18617 H 43.11836505547704 31.292002112338395 15.358450580230112 H 0.0 **** 0.06
18618 H 43.43426263929547 29.543457430290772 15.453434788090874 H 0.0 **** 0.06
18619 H 41.761452940384544 30.150844136419067 15.51518563849939 H 0.0 **** 0.06
18620 H 42.858244911759556 30.423895752138293 16.8902983989839 H 0.0 **** 0.06
18621 C 41.703358072847976 108.53956718357969 84.734253157448 C 0.0 **** -0.24
18622 H 41.47940464305415 108.89718154168338 85.73981760656142 H 0.0 **** 0.06
18623 H 42.641915310995415 108.9771254741834 84.39382544678705 H 0.0 **** 0.06
18624 H 40.89975601449592 108.8295134198215 84.05793013687759 H 0.0 **** 0.06
18625 H 41.79340569177464 107.45255216819075 84.74751405679731 H 0.0 **** 0.06
18626 C 81.94956764846393 76.53617221667162 91.79417305113367 C 0.0 **** -0.24
18627 H 81.35374325172884 76.46530980757439 92.7042602904778 H 0.0 **** 0.06
18628 H 82.86688292702246 77.0853025651378 92.0032338676933 H 0.0 **** 0.06
18629 H 81.37858032482183 77.05959980152875 91.02652269201198 H 0.0 **** 0.06
18630 H 82.19619955595357 75.53443900449872 91.44356616586262 H 0.0 **** 0.06
18631 C 66.72742205514098 47.745413127738175 84.81737473483975 C 0.0 **** -0.24
18632 H 66.50671914657872 47.035067579619806 85.61481404788253 H 0.0 **** 0.06
18633 H 67.13539671757863 48.66009269653091 85.24904243451181 H 0.0 **** 0.06
18634 H 65.81287111689974 47.975885123329135 84.27279499876431 H 0.0 **** 0.06
18635 H 67.4566396859833 47.308747394620184 84.13525258462846 H 0.0 **** 0.06
18636 C 45.3502510887966 18.628399088229585 76.423490164839 C 0.0 **** -0.24
18637 H 44.640637069589445 17.91053154769112 76.83453771485043 H 0.0 **** 0.06
18638 H 46.24671695598988 18.649026232497206 77.04348488778783 H 0.0 **** 0.06
18639 H 44.89537100110698 19.6193727299721 76.4074472132595 H 0.0 **** 0.06
18640 H 45.616257590774524 18.335277018631928 75.40775645196231 H 0.0 **** 0.06
18641 C 82.76360870846102 67.03354192981547 79.44452767103016 C 0.0 **** -0.24
18642 H 82.7082069091953 67.52749565306166 78.47472393067065 H 0.0 **** 0.06
18643 H 82.68194668525513 65.95461209287953 79.30728419106819 H 0.0 **** 0.06
18644 H 81.9478328455022 67.38190225883136 80.07781494864247 H 0.0 **** 0.06
18645 H 83.71725706061511 67.26797286090127 79.91753076419732 H 0.0 **** 0.06
18646 C 99.7922468377256 94.60788662368299 114.05983868560841 C 0.0 **** -0.24
18647 H 99.81539969177177 95.50252914394184 114.68286896479071 H 0.0 **** 0.06
18648 H 98.82941579419239 94.54433794678849 113.55235081093707 H 0.0 **** 0.06
18649 H 99.93280476421353 93.72623851812767 114.6850162933321 H 0.0 **** 0.06
18650 H 100.59047497397549 94.66005388231054 113.32038462858938 H 0.0 **** 0.06
18651 C 95.2376977296642 25.915948218439752 73.07282892337412 C 0.0 **** -0.24
18652 H 94.75621547104808 25.397326211461518 72.24385425100263 H 0.0 **** 0.06
18653 H 96.23480865697047 25.503102911684408 73.22968103402587 H 0.0 **** 0.06
18654 H 94.64366804277284 25.786106223633666 73.97696591521333 H 0.0 **** 0.06
18655 H 95.31659908333103 26.978129060515926 72.83981940038615 H 0.0 **** 0.06
18656 C 11.946000237638902 34.723704241989765 82.4866685535473 C 0.0 **** -0.24
18657 H 10.866480213280674 34.737520948002555 82.63536137605553 H 0.0 **** 0.06
18658 H 12.17168105138807 34.325092525668964 81.49759230029014 H 0.0 **** 0.06
18659 H 12.409311538778397 34.09495463216447 83.24690767555416 H 0.0 **** 0.06
18660 H 12.335958576557562 35.73923014122633 82.56767912596422 H 0.0 **** 0.06
18661 C 48.929228883478544 101.99459433671495 3.763536136755988 C 0.0 **** -0.24
18662 H 48.23093966233333 101.38502179480776 3.188926253242231 H 0.0 **** 0.06
18663 H 48.64951284566976 103.04549736425335 3.6767729535301914 H 0.0 **** 0.06
18664 H 49.93776731224381 101.85347924323932 3.377109385737283 H 0.0 **** 0.06
18665 H 48.89559954928578 101.6940315909938 4.81079402082535 H 0.0 **** 0.06
18666 C 34.71100302222192 46.751224375624886 116.75646195968395 C 0.0 **** -0.24
18667 H 35.29857010702773 45.841593978746985 116.6277899269177 H 0.0 **** 0.06
18668 H 35.3442800885781 47.536598172954214 117.16958076238923 H 0.0 **** 0.06
18669 H 33.88407478485931 46.554228378438296 117.43887623597887 H 0.0 **** 0.06
18670 H 34.318568894467205 47.069253961230885 115.7907914268173 H 0.0 **** 0.06
18671 C 56.07184810859226 4.3709023759354295 76.06153881127895 C 0.0 **** -0.24
18672 H 56.23228917895321 5.305623516164019 76.59910651574921 H 0.0 **** 0.06
18673 H 55.58434242112807 4.579744670106493 75.10888614214196 H 0.0 **** 0.06
18674 H 55.43881483385715 3.7137886800477418 76.65826861515893 H 0.0 **** 0.06
18675 H 57.03078803258174 3.8861439357905283 75.88123522841485 H 0.0 **** 0.06
18676 C 6.002529281271904 88.94957126465164 62.37690328646793 C 0.0 **** -0.24
18677 H 5.9134640137396275 88.59494098525369 63.403750260833526 H 0.0 **** 0.06
18678 H 5.934374406412587 90.03715064510772 62.36065679898186 H 0.0 **** 0.06
18679 H 5.197519607407685 88.52548803302335 61.77623046595226 H 0.0 **** 0.06
18680 H 6.963764312364702 88.6380210993521 61.96787310582096 H 0.0 **** 0.06
18681 C 33.00303920110295 80.51962442226485 89.5635037443385 C 0.0 **** -0.24
18682 H 31.92128917933863 80.39824051692071 89.62641517457809 H 0.0 **** 0.06
18683 H 33.39688805358054 79.86771278211057 88.78366833310548 H 0.0 **** 0.06
18684 H 33.453250448262395 80.25655624168317 90.52032289636031 H 0.0 **** 0.06
18685 H 33.23802993027661 81.55679387959583 89.32386473526617 H 0.0 **** 0.06
18686 C 0.1093438960133426 103.19468637544017 12.513654683683171 C 0.0 **** -0.24
18687 H -0.589784667062986 103.68615035254629 11.837281000610204 H 0.0 **** 0.06
18688 H 1.0963321739303353 103.15803385877203 12.05096495741222 H 0.0 **** 0.06
18689 H -0.23393078882668306 102.18074848593395 12.71804496694918 H 0.0 **** 0.06
18690 H 0.1665575570428075 103.75494958769553 13.447114227104663 H 0.0 **** 0.06
18691 C 51.15673415373868 64.04150437485433 42.686199765791514 C 0.0 **** -0.24
18692 H 51.87342423892011 64.51126144077591 42.012699524186246 H 0.0 **** 0.06
18693 H 50.93979871379344 63.03149431862358 42.338072372091574 H 0.0 **** 0.06
18694 H 50.23699923618409 64.62582113383112 42.70209134192868 H 0.0 **** 0.06
18695 H 51.577298017274416 63.99845110146229 43.69113680262626 H 0.0 **** 0.06
18696 C 53.037419915367366 72.7862834223321 73.75163511241811 C 0.0 **** -0.24
18697 H 53.975961370361574 72.60415026023037 73.2280814704383 H 0.0 **** 0.06
18698 H 53.247843293627966 73.08341296924422 74.77965363074142 H 0.0 **** 0.06
18699 H 52.43835824256553 71.87610265800748 73.75172087823435 H 0.0 **** 0.06
18700 H 52.48943321572057 73.58258304422299 73.24737378439355 H 0.0 **** 0.06
18701 C 31.14182961523349 58.09146421722346 50.34546418070149 C 0.0 **** -0.24
18702 H 31.974087755084412 57.892473155306845 51.02062853916727 H 0.0 **** 0.06
18703 H 30.527364721360897 58.894525098826904 50.75421858639135 H 0.0 **** 0.06
18704 H 30.53799937427064 57.19073960952622 50.2377741057571 H 0.0 **** 0.06
18705 H 31.527895852762867 58.389934655156935 49.37087954396256 H 0.0 **** 0.06
18706 C 66.23871420043207 56.57413115982814 85.46913820023718 C 0.0 **** -0.24
18707 H 65.44023386978563 57.15621441254055 85.92891335759992 H 0.0 **** 0.06
18708 H 66.57109046608537 55.801859468726406 86.1628106127664 H 0.0 **** 0.06
18709 H 67.07404608666099 57.23179230726535 85.22874598048202 H 0.0 **** 0.06
18710 H 65.86796231854402 56.107947996896314 84.55596225928883 H 0.0 **** 0.06
18711 C 39.76783516280659 30.176345065320902 11.548325173933478 C 0.0 **** -0.24
18712 H 39.940465492181715 29.127369774655648 11.303842700428987 H 0.0 **** 0.06
18713 H 40.12422305025072 30.376698641173647 12.559360364115577 H 0.0 **** 0.06
18714 H 38.70173868360757 30.392199560561465 11.488400050198777 H 0.0 **** 0.06
18715 H 40.30714207029635 30.806504018105556 10.841217183302632 H 0.0 **** 0.06
18716 C 41.7499494051292 72.84084967934439 56.88968097136475 C 0.0 **** -0.24
18717 H 41.44104179824524 72.0843308945951 57.612103613036176 H 0.0 **** 0.06
18718 H 41.96574986265955 72.36262470508507 55.933343633788745 H 0.0 **** 0.06
18719 H 42.643351928584195 73.34732841568396 57.25393108227657 H 0.0 **** 0.06
18720 H 40.94682217396223 73.56704082461542 56.760641870671314 H 0.0 **** 0.06
18721 C 31.227435780771827 85.7178270219016 109.7433938238675 C 0.0 **** -0.24
18722 H 31.755822369331952 86.30585798083587 110.49333323996399 H 0.0 **** 0.06
18723 H 31.201399182883733 86.26888006280689 108.80251407946855 H 0.0 **** 0.06
18724 H 30.2090502682625 85.52827813655705 110.08219039544167 H 0.0 **** 0.06
18725 H 31.744382403744623 84.77024281730456 109.59493414415442 H 0.0 **** 0.06
18726 C 110.05847228372234 26.46485669003723 49.27165364782854 C 0.0 **** -0.24
18727 H 109.49036527453895 26.10947946320502 50.13140967415441 H 0.0 **** 0.06
18728 H 110.01597105959132 25.720957505909105 48.475662658421186 H 0.0 **** 0.06
18729 H 111.09564251012475 26.626193171302752 49.562911846589316 H 0.0 **** 0.06
18730 H 109.63001191953532 27.402186689701637 48.915618254662036 H 0.0 **** 0.06
18731 C 92.51053721805036 34.84561496187154 69.56990947961677 C 0.0 **** -0.24
18732 H 92.3960544615139 34.186761273014596 68.70889582946444 H 0.0 **** 0.06
18733 H 91.82517446426871 35.68766627838096 69.47598710821643 H 0.0 **** 0.06
18734 H 93.53567712782814 35.21364017525887 69.61182097517519 H 0.0 **** 0.06
18735 H 92.28504364313599 34.293515959628586 70.48249499680216 H 0.0 **** 0.06
18736 C 31.893114184783315 69.61131129523014 24.343952796998522 C 0.0 **** -0.24
18737 H 32.63826155421003 69.6830499418885 23.551875205565807 H 0.0 **** 0.06
18738 H 31.225929831435025 70.47124640484594 24.293927258655287 H 0.0 **** 0.06
18739 H 32.39233364791946 69.59384244783934 25.312208791497937 H 0.0 **** 0.06
18740 H 31.316133249924775 68.69524829254047 24.216216513322706 H 0.0 **** 0.06
18741 C 93.51126848349298 94.19027958720906 53.250318700361426 C 0.0 **** -0.24
18742 H 93.14710749450205 94.38778938564386 54.25874898806657 H 0.0 **** 0.06
18743 H 94.50335967193175 94.62608256280728 53.1305320997935 H 0.0 **** 0.06
18744 H 92.82892597232532 94.63305825220837 52.52508998648108 H 0.0 **** 0.06
18745 H 93.5653902570622 93.11376869845125 53.08822272885248 H 0.0 **** 0.06
18746 C 101.35485083352037 75.22728826024581 33.63626224227073 C 0.0 **** -0.24
18747 H 101.2304104952035 75.7126555240136 34.604005574574614 H 0.0 **** 0.06
18748 H 102.38077888856617 75.35959201931604 33.29305342773951 H 0.0 **** 0.06
18749 H 100.6690072794577 75.67369000843726 32.91551601540476 H 0.0 **** 0.06
18750 H 101.13833327302106 74.16294160440287 33.73207118420552 H 0.0 **** 0.06
18751 C 35.82220094178433 40.975440890823336 62.40740448898831 C 0.0 **** -0.24
18752 H 35.66441606389738 41.46010110688064 61.444502984745476 H 0.0 **** 0.06
18753 H 36.54864721664043 41.545833658863245 62.986299013343235 H 0.0 **** 0.06
18754 H 36.19632570733603 39.9645897324142 62.247706293545384 H 0.0 **** 0.06
18755 H 34.87816031015518 40.93243341432003 62.951106283402105 H 0.0 **** 0.06
18756 C 88.66162339014903 50.883578656172745 1.7261803742972717 C 0.0 **** -0.24
18757 H 88.33452746526268 51.870144323712594 1.3967089058628268 H 0.0 **** 0.06
18758 H 88.03739076225719 50.5529848910393 2.55718545054893 H 0.0 **** 0.06
18759 H 89.70142613197439 50.93622554580887 2.0511320825514883 H 0.0 **** 0.06
18760 H 88.57306264455659 50.17700633303343 0.9018870882075785 H 0.0 **** 0.06
18761 C 1.1860241314971631 41.75767939584247 24.16291356677894 C 0.0 **** -0.24
18762 H 2.0990928510617692 41.88777407710191 23.583033595087045 H 0.0 **** 0.06
18763 H 1.3828319227961856 41.095245215054604 25.006677571241767 H 0.0 **** 0.06
18764 H 0.4124268194501042 41.32125869160447 23.53084224802413 H 0.0 **** 0.06
18765 H 0.8493541303599415 42.72663182804325 24.53244637789257 H 0.0 **** 0.06
18766 C 94.82971042095716 21.752448908414635 94.36664969798207 C 0.0 **** -0.24
18767 H 93.8963616507198 21.340167267966507 94.75160028833022 H 0.0 **** 0.06
18768 H 95.05695496312197 21.296325051128207 93.40243759210674 H 0.0 **** 0.06
18769 H 95.6361943188898 21.54224020437036 95.06852571123355 H 0.0 **** 0.06
18770 H 94.7257880561285 22.8306433293412 94.2435118924669 H 0.0 **** 0.06
18771 C 5.034139371572735 42.58121364328885 110.14316942944285 C 0.0 **** -0.24
18772 H 5.474576428148964 41.58541941974494 110.17628961533931 H 0.0 **** 0.06
18773 H 4.814813025926384 42.84713315316637 109.10810863241294 H 0.0 **** 0.06
18774 H 5.735250932799772 43.30277619084657 110.56298373881668 H 0.0 **** 0.06
18775 H 4.112213508649489 42.59028394925791 110.72376682974458 H 0.0 **** 0.06
18776 C 83.35372481368725 44.5173834006014 48.08631659877524 C 0.0 **** -0.24
18777 H 83.42842419737616 45.595249495802506 47.94764590526767 H 0.0 **** 0.06
18778 H 82.30995675999995 44.24282405519739 48.24251341947266 H 0.0 **** 0.06
18779 H 83.94116084968792 44.22117753702224 48.95519399852068 H 0.0 **** 0.06
18780 H 83.73418070928457 44.00905610826672 47.200246821632824 H 0.0 **** 0.06
18781 C 73.0412574797291 53.385641176117645 5.676736095496869 C 0.0 **** -0.24
18782 H 73.37265671996576 53.38238138389323 4.6385902230672045 H 0.0 **** 0.06
18783 H 73.88720979196262 53.613216290532534 6.326640947499284 H 0.0 **** 0.06
18784 H 72.64013138409345 52.404436794284436 5.932567759806307 H 0.0 **** 0.06
18785 H 72.2670274703392 54.140680945490715 5.809919259983566 H 0.0 **** 0.06
18786 C 69.08896045037818 94.9303027499011 51.870119714541374 C 0.0 **** -0.24
18787 H 68.35084706053618 94.20205674991075 51.531867681907386 H 0.0 **** 0.06
18788 H 69.15332831239391 94.90362740681178 52.95810555852438 H 0.0 **** 0.06
18789 H 68.78920972080641 95.92767752181993 51.547492895863115 H 0.0 **** 0.06
18790 H 70.06104434841734 94.68727677109044 51.44109496905219 H 0.0 **** 0.06
18791 C 83.54029110069956 40.916715099577914 91.71891834631447 C 0.0 **** -0.24
18792 H 84.62493737575355 40.82900607368185 91.7835678882301 H 0.0 **** 0.06
18793 H 83.22479438257008 41.857133403913735 92.17046921030501 H 0.0 **** 0.06
18794 H 83.07602553121347 40.0845472411163 92.24847015964357 H 0.0 **** 0.06
18795 H 83.23722993127245 40.89639614434765 90.67189014346525 H 0.0 **** 0.06
18796 C 90.59681122107068 63.63074320661386 44.17868505300538 C 0.0 **** -0.24
18797 H 90.0767995528955 63.862131444077534 45.108009691899724 H 0.0 **** 0.06
18798 H 89.86723685780112 63.387349993903 43.40565723001083 H 0.0 **** 0.06
18799 H 91.25965396933992 62.779610509555425 44.33499754520875 H 0.0 **** 0.06
18800 H 91.1830638955351 64.49519994710579 43.86621530962725 H 0.0 **** 0.06
18801 C 44.46089838538654 71.86979224972345 68.77952725171099 C 0.0 **** -0.24
18802 H 44.498105655536676 72.80719553536471 69.33406727426592 H 0.0 **** 0.06
18803 H 44.00846864960937 72.04250515995142 67.80239848855362 H 0.0 **** 0.06
18804 H 43.86510384078002 71.14375948044 69.33303358844421 H 0.0 **** 0.06
18805 H 45.47255941197642 71.48494429547111 68.64863791207318 H 0.0 **** 0.06
18806 C 80.73025673381343 110.84139097973507 52.44770775197384 C 0.0 **** -0.24
18807 H 81.81844651218756 110.83958291189425 52.38018932341237 H 0.0 **** 0.06
18808 H 80.43110473856794 110.66551350446981 53.48176299960534 H 0.0 **** 0.06
18809 H 80.32540614831538 110.05259078192863 51.81308009678855 H 0.0 **** 0.06
18810 H 80.34651360062173 111.805995610072 52.11730343960187 H 0.0 **** 0.06
18811 C 25.217496504989867 65.04555433493545 26.4867455816361 C 0.0 **** -0.24
18812 H 26.13081370678043 65.00311305623643 27.079146899668928 H 0.0 **** 0.06
18813 H 24.59623649500128 65.87142442238388 26.834579761719098 H 0.0 **** 0.06
18814 H 24.67128694079804 64.10817424204367 26.593477287445978 H 0.0 **** 0.06
18815 H 25.472769958335334 65.1987508180307 25.437293640848893 H 0.0 **** 0.06
18816 C 95.80299550470164 73.50460531141772 58.25497352877503 C 0.0 **** -0.24
18817 H 96.50357814955711 74.324010457724 58.412155150259174 H 0.0 **** 0.06
18818 H 96.28065500131106 72.7276762164118 57.6573067294459 H 0.0 **** 0.06
18819 H 94.92218711487678 73.87539193919335 57.731754872697955 H 0.0 **** 0.06
18820 H 95.50556175306158 73.09134263234151 59.218677362697115 H 0.0 **** 0.06
18821 C 73.59093215225874 15.121266315973685 67.81219083640207 C 0.0 **** -0.24
18822 H 73.71151307738037 16.046918244618496 67.24760264087973 H 0.0 **** 0.06
18823 H 72.6408474384958 15.144300213844303 68.34656474941772 H 0.0 **** 0.06
18824 H 74.40864505869797 15.02282132133513 68.52608238575993 H 0.0 **** 0.06
18825 H 73.60224486865397 14.274054160311437 67.12575685688938 H 0.0 **** 0.06
18826 C 49.521553023245644 19.13996252592608 73.13204857530783 C 0.0 **** -0.24
18827 H 48.872735799315706 19.37588165479019 72.28885683535532 H 0.0 **** 0.06
18828 H 50.41315140824656 18.62604241940784 72.77148170853008 H 0.0 **** 0.06
18829 H 48.98827065890964 18.49554302584994 73.8315844544243 H 0.0 **** 0.06
18830 H 49.81203712077689 20.061417948102644 73.63600970547893 H 0.0 **** 0.06
18831 C 19.817082607406746 115.58411571933712 100.63271278802705 C 0.0 **** -0.24
18832 H 18.960023555755185 114.93964058090756 100.82959746412556 H 0.0 **** 0.06
18833 H 20.41792406111813 115.67635657565899 101.53760568310872 H 0.0 **** 0.06
18834 H 19.468087969463568 116.56971357763567 100.32532614947672 H 0.0 **** 0.06
18835 H 20.423065771952622 115.14845122622948 99.83686861256166 H 0.0 **** 0.06
18836 C 83.69819592516501 59.76762587320923 27.76698848543103 C 0.0 **** -0.24
18837 H 84.62754060205236 59.58711292559019 28.30700376282155 H 0.0 **** 0.06
18838 H 82.93316303960023 59.07710793221287 28.122517169214944 H 0.0 **** 0.06
18839 H 83.86246972861153 59.61093864927051 26.700198308178557 H 0.0 **** 0.06
18840 H 83.37116048683842 60.79277638299885 27.938164320425813 H 0.0 **** 0.06
18841 C 77.52446088443409 78.05625544344772 9.463336831018623 C 0.0 **** -0.24
18842 H 76.57797234782896 77.90542586194175 8.943012005708539 H 0.0 **** 0.06
18843 H 78.2281754197183 77.27686198163909 9.170250364565902 H 0.0 **** 0.06
18844 H 77.35699203518976 78.00995441141325 10.539635299653341 H 0.0 **** 0.06
18845 H 77.93098147022246 79.03251154279857 9.20072121720736 H 0.0 **** 0.06
18846 C 42.69147656273515 45.078551379358714 83.0223753455619 C 0.0 **** -0.24
18847 H 43.207875672076625 44.18807002398469 83.3802424398373 H 0.0 **** 0.06
18848 H 42.57490163387922 45.02030332729507 81.9397930319002 H 0.0 **** 0.06
18849 H 43.275423238755224 45.962893446490284 83.2777150445493 H 0.0 **** 0.06
18850 H 41.710664661842316 45.142846465159295 83.49126445745068 H 0.0 **** 0.06
18851 C 37.70746359183613 88.39449324253155 43.68166351531197 C 0.0 **** -0.24
18852 H 38.38204146860505 89.12443611067772 44.12769825407584 H 0.0 **** 0.06
18853 H 37.70131791947887 88.51964758078282 42.59844348060423 H 0.0 **** 0.06
18854 H 36.70083085235791 88.5459408197716 44.070788301182276 H 0.0 **** 0.06
18855 H 38.04517487109973 87.38844214485209 43.93044302537423 H 0.0 **** 0.06
18856 C 75.08062713564448 75.27741879390302 99.92195208030483 C 0.0 **** -0.24
18857 H 74.7734096170251 74.4889805556611 99.23353606340476 H 0.0 **** 0.06
18858 H 75.43224818435527 74.82941896344667 100.85240835045607 H 0.0 **** 0.06
18859 H 74.23217177790445 75.92937101928086 100.1294171586909 H 0.0 **** 0.06
18860 H 75.88443765681046 75.85869042928545 99.47117736491504 H 0.0 **** 0.06
18861 C 102.7392738448039 110.98949338190225 64.26221008103107 C 0.0 **** -0.24
18862 H 102.8638285884694 110.5196451389158 63.285557723821746 H 0.0 **** 0.06
18863 H 101.68715009714998 110.96143084099523 64.54550334454515 H 0.0 **** 0.06
18864 H 103.07534638124656 112.0255457839909 64.21147859888296 H 0.0 **** 0.06
18865 H 103.33122229717088 110.45137030300819 65.00220232149712 H 0.0 **** 0.06
18866 C 12.312705070429786 28.173763080471744 57.50054586994915 C 0.0 **** -0.24
18867 H 13.302508797052525 27.75632406880907 57.31746341914436 H 0.0 **** 0.06
18868 H 12.223639994100466 28.45163323489809 58.55140153677033 H 0.0 **** 0.06
18869 H 11.553654377842577 27.430939445397364 57.25542334074427 H 0.0 **** 0.06
18870 H 12.17079100767262 29.057540143347495 56.87771641805182 H 0.0 **** 0.06
18871 C 54.67076191026948 77.55454570711055 3.0768458492928232 C 0.0 **** -0.24
18872 H 55.706800849842644 77.72901586898413 2.7861768703241694 H 0.0 **** 0.06
18873 H 54.520086729545554 76.49043225457197 3.2619690122662632 H 0.0 **** 0.06
18874 H 54.00901619817854 77.88152863645351 2.2747973831859554 H 0.0 **** 0.06
18875 H 54.44857250189918 78.11673075422576 3.9835838353536133 H 0.0 **** 0.06
18876 C 104.81778427205984 66.30613723102789 43.05886400285689 C 0.0 **** -0.24
18877 H 105.6265495744698 67.02477911382121 43.19511947558344 H 0.0 **** 0.06
18878 H 104.71705697256971 66.07142019076667 41.99924667427012 H 0.0 **** 0.06
18879 H 103.88545702663981 66.73504219050179 43.427083295850025 H 0.0 **** 0.06
18880 H 105.04393046065022 65.39638218781084 43.61432019648796 H 0.0 **** 0.06
18881 C 61.21075495546279 71.48912987156305 98.41058750852147 C 0.0 **** -0.24
18882 H 61.109225301558865 71.27015287345586 99.47380235170598 H 0.0 **** 0.06
18883 H 61.72190566453244 72.4433023990106 98.28364779774725 H 0.0 **** 0.06
18884 H 60.222872697283094 71.54164597270571 97.95403016164394 H 0.0 **** 0.06
18885 H 61.790282056911764 70.69976906162515 97.93169312964855 H 0.0 **** 0.06
18886 C 34.07641073567894 76.51427011193209 74.76776902918667 C 0.0 **** -0.24
18887 H 35.05995459127803 76.22517959621041 75.13799884602238 H 0.0 **** 0.06
18888 H 33.90668030152961 77.57113454337866 74.97710895639446 H 0.0 **** 0.06
18889 H 33.31137464017461 75.91833783794061 75.26562791774043 H 0.0 **** 0.06
18890 H 34.02792325149571 76.3441710925349 73.69276522268501 H 0.0 **** 0.06
18891 C 1.7882447456855886 82.84478526618062 115.64980673535376 C 0.0 **** -0.24
18892 H 1.9186514293289605 82.06143074633852 116.39642294025458 H 0.0 **** 0.06
18893 H 1.4372521459098095 83.75468866762142 116.13746133451761 H 0.0 **** 0.06
18894 H 1.0560956996019684 82.5232924323061 114.90999728894855 H 0.0 **** 0.06
18895 H 2.7408860652129476 83.04074003269182 115.15834038456038 H 0.0 **** 0.06
18896 C 51.31694233876539 102.96351803067782 58.886253556333145 C 0.0 **** -0.24
18897 H 51.839579718328935 103.87023628278837 58.57997557213514 H 0.0 **** 0.06
18898 H 50.55310823304467 102.71839257045585 58.14810048943184 H 0.0 **** 0.06
18899 H 50.846637976334904 103.12530631411127 59.85553228370986 H 0.0 **** 0.06
18900 H 52.028338039560026 102.14081531587138 58.95981563020973 H 0.0 **** 0.06
18901 C 6.205153598005381 61.10319867927128 23.63736260132856 C 0.0 **** -0.24
18902 H 5.7554442726528805 62.05622947651093 23.35888139030115 H 0.0 **** 0.06
18903 H 6.778342987330603 61.22737429899238 24.55630619225869 H 0.0 **** 0.06
18904 H 6.865424301377374 60.76611845824771 22.8378911979284 H 0.0 **** 0.06
18905 H 5.419706917069078 60.36333943272596 23.79614186568776 H 0.0 **** 0.06
18906 C 36.53878209652191 111.47846470313814 10.303445918896987 C 0.0 **** -0.24
18907 H 36.22033094534794 110.74282802799686 9.56377666610496 H 0.0 **** 0.06
18908 H 36.678943971022534 112.44410035236588 9.817429027012452 H 0.0 **** 0.06
18909 H 37.4778957573439 111.15789234566563 10.753483484660599 H 0.0 **** 0.06
18910 H 35.775416695214744 111.56799512197702 11.076758644346455 H 0.0 **** 0.06
18911 C 77.03061837417533 6.369833407238817 69.83683455927758 C 0.0 **** -0.24
18912 H 76.61100706578068 5.398475359167978 69.57090790261643 H 0.0 **** 0.06
18913 H 76.91458120172243 7.057191257136434 68.99893031615602 H 0.0 **** 0.06
18914 H 78.08895064967703 6.256034494661284 70.07052781971666 H 0.0 **** 0.06
18915 H 76.50618159567145 6.7654314957039805 70.70668407899291 H 0.0 **** 0.06
18916 C 115.05006895101018 57.739792891854854 65.25727919700483 C 0.0 **** -0.24
18917 H 114.85591345288115 56.72937289013898 65.61828346048975 H 0.0 **** 0.06
18918 H 114.27655144923426 58.41244907155443 65.6280383002786 H 0.0 **** 0.06
18919 H 115.04348685708406 57.74390452948703 64.1672962902851 H 0.0 **** 0.06
18920 H 116.02407508356742 58.07227242344947 65.61624908343163 H 0.0 **** 0.06
18921 C 97.51134881649443 12.662634085050058 106.20618339985555 C 0.0 **** -0.24
18922 H 97.25495287880494 13.699009232861826 105.98596157202013 H 0.0 **** 0.06
18923 H 97.16209488948135 12.022746169758634 105.3961333474735 H 0.0 **** 0.06
18924 H 97.03545273315143 12.362503335740925 107.1392093147432 H 0.0 **** 0.06
18925 H 98.59313346922801 12.569265515570606 106.30330321427661 H 0.0 **** 0.06
18926 C 106.650431146208 75.90578842411327 104.28562629913841 C 0.0 **** -0.24
18927 H 105.77391237940026 75.81816335353443 104.92727389626492 H 0.0 **** 0.06
18928 H 106.48825276776256 75.33759576628893 103.36972279009564 H 0.0 **** 0.06
18929 H 107.52354252393692 75.51366110872652 104.8073462107082 H 0.0 **** 0.06
18930 H 106.81596708470147 76.95472447239308 104.03803785986628 H 0.0 **** 0.06
18931 C 114.40323854715456 19.80098321162336 5.91284057007789 C 0.0 **** -0.24
18932 H 114.20872033059958 20.108902897681332 6.940767690229563 H 0.0 **** 0.06
18933 H 114.75252844433274 18.76859694526668 5.903614581350695 H 0.0 **** 0.06
18934 H 115.16644286165723 20.447323622888675 5.479133034872461 H 0.0 **** 0.06
18935 H 113.48622085893776 19.880230795489112 5.329802587557907 H 0.0 **** 0.06
18936 C 91.87678034612011 60.105935003630066 98.88218397392521 C 0.0 **** -0.24
18937 H 92.81977579213589 59.987726764897445 99.41698433997291 H 0.0 **** 0.06
18938 H 91.88142936613329 59.471121169969535 97.99576884228347 H 0.0 **** 0.06
18939 H 91.75792248989157 61.147747084716116 98.58380772203742 H 0.0 **** 0.06
18940 H 91.0515571372124 59.81769530602264 99.53218428843633 H 0.0 **** 0.06
18941 C 49.34010304968865 14.048737019267662 48.928396611730136 C 0.0 **** -0.24
18942 H 49.44070224337008 14.930696763571405 48.29530908550856 H 0.0 **** 0.06
18943 H 50.07769797908992 13.303037056987051 48.63165892377174 H 0.0 **** 0.06
18944 H 48.33860832716405 13.633607591135501 48.815322103702385 H 0.0 **** 0.06
18945 H 49.5027093529914 14.328694918466283 49.96824112582135 H 0.0 **** 0.06
18946 C 33.32117775238743 97.42076571052468 22.680643517584357 C 0.0 **** -0.24
18947 H 33.42527755232314 96.50605289887898 23.263608034026426 H 0.0 **** 0.06
18948 H 33.345110844847 98.28233453424508 23.348824186364816 H 0.0 **** 0.06
18949 H 32.373129005344 97.40325771187457 22.14324701906909 H 0.0 **** 0.06
18950 H 34.141702056570665 97.4911734207966 21.96606907897259 H 0.0 **** 0.06
18951 C 109.6492278354909 9.070977225855472 102.61383471569673 C 0.0 **** -0.24
18952 H 110.42432575716552 9.47334569114713 101.96222152728689 H 0.0 **** 0.06
18953 H 109.28472613242802 8.128738769512609 102.20576350553321 H 0.0 **** 0.06
18954 H 108.82540014455654 9.781871343364855 102.67882290899539 H 0.0 **** 0.06
18955 H 110.06256380356844 8.901679925604299 103.60861651325013 H 0.0 **** 0.06
18956 C 18.88315475400779 51.698937839177724 12.323876148130338 C 0.0 **** -0.24
18957 H 19.332097477217474 51.24076357944899 13.205615788146062 H 0.0 **** 0.06
18958 H 17.98237919795423 52.239708219644314 12.614745152572453 H 0.0 **** 0.06
18959 H 18.624591759586565 50.922864607929036 11.604002937110096 H 0.0 **** 0.06
18960 H 19.593676833703654 52.39073981687448 11.872923504270375 H 0.0 **** 0.06
18961 C 102.89880309819421 61.03490225891279 95.25469885789084 C 0.0 **** -0.24
18962 H 103.36994054238698 60.539511138011996 96.10452954569092 H 0.0 **** 0.06
18963 H 102.2471930124562 60.328954484856745 94.738598022487 H 0.0 **** 0.06
18964 H 103.66798943986308 61.38985591496324 94.56982649231742 H 0.0 **** 0.06
18965 H 102.30912383154003 61.88100184316803 95.60944510460354 H 0.0 **** 0.06
18966 C 110.71637848280791 95.30079078609899 64.36648533974162 C 0.0 **** -0.24
18967 H 111.33596985110664 95.90611896523242 65.027710917142 H 0.0 **** 0.06
18968 H 110.25091774072722 94.49829967068791 64.94010051049364 H 0.0 **** 0.06
18969 H 111.33587245316909 94.87265996751097 63.57865212917374 H 0.0 **** 0.06
18970 H 109.94142428333653 95.92577795396176 63.921249369488315 H 0.0 **** 0.06
18971 C 83.49906343909666 7.4123362973264335 47.61305588072969 C 0.0 **** -0.24
18972 H 83.53185375716288 7.684483388894279 46.55756889165164 H 0.0 **** 0.06
18973 H 82.85438880897962 8.110692259851504 48.14789754821493 H 0.0 **** 0.06
18974 H 84.50484974333526 7.452487243668699 48.03002076836057 H 0.0 **** 0.06
18975 H 83.10296315237579 6.402396692779277 47.7139690246257 H 0.0 **** 0.06
18976 C 56.49794097369784 23.628309442495777 105.20949406251717 C 0.0 **** -0.24
18977 H 57.455531867373736 23.589069194051376 105.72760001872268 H 0.0 **** 0.06
18978 H 56.42602411259617 24.562367923958845 104.65065795957841 H 0.0 **** 0.06
18979 H 55.687624484034274 23.57657113132842 105.93766257408541 H 0.0 **** 0.06
18980 H 56.42240750967636 22.78650464606875 104.52146984529813 H 0.0 **** 0.06
18981 C 85.91386505321768 69.0341765287495 78.97970880264754 C 0.0 **** -0.24
18982 H 85.85069884921054 70.04364560726836 79.38664516771081 H 0.0 **** 0.06
18983 H 86.78481830751903 68.95854834627502 78.32924379174878 H 0.0 **** 0.06
18984 H 85.01252923214233 68.8159805247586 78.40806456822605 H 0.0 **** 0.06
18985 H 86.00704107990896 68.31834080423596 79.79729518515532 H 0.0 **** 0.06
18986 C 39.18881903635847 11.488704972897153 67.49956109443951 C 0.0 **** -0.24
18987 H 39.12032612091673 10.40832342990348 67.62124645628333 H 0.0 **** 0.06
18988 H 38.20070564244797 11.931196843750921 67.62310376414652 H 0.0 **** 0.06
18989 H 39.568123581565374 11.718410023009213 66.50374553530895 H 0.0 **** 0.06
18990 H 39.86680819682351 11.896244109560204 68.24909460539521 H 0.0 **** 0.06
18991 C 9.002512443284559 5.967938629712615 22.763573886289837 C 0.0 **** -0.24
18992 H 9.50254305769053 5.445249343165649 23.57857524977372 H 0.0 **** 0.06
18993 H 9.410371271245083 5.6304317480734305 21.81100723775408 H 0.0 **** 0.06
18994 H 9.162425216513867 7.041815147943547 22.867478551906053 H 0.0 **** 0.06
18995 H 7.933662339410432 5.754707734414259 22.798071187676264 H 0.0 **** 0.06
18996 C 101.6814455141965 75.3705515060656 53.32749180681331 C 0.0 **** -0.24
18997 H 100.68556863435018 75.78311657589927 53.48918988978823 H 0.0 **** 0.06
18998 H 102.24726717716064 76.03252763742651 52.67092536653948 H 0.0 **** 0.06
18999 H 101.59694309864028 74.38655343835799 52.86643638519243 H 0.0 **** 0.06
19000 H 102.1971291003712 75.27992717329803 54.28426749591672 H 0.0 **** 0.06
19001 C 87.46937095883365 88.43667635937697 36.42576695085404 C 0.0 **** -0.24
19002 H 87.07712545541634 89.39338981352014 36.77238614624957 H 0.0 **** 0.06
19003 H 88.4481898794642 88.58878805928504 35.970826820713796 H 0.0 **** 0.06
19004 H 86.78792539862371 88.01054446951971 35.689264715285105 H 0.0 **** 0.06
19005 H 87.56267927158649 87.75548455900122 37.27173046746134 H 0.0 **** 0.06
19006 C 17.37161573069156 42.17920601958926 12.292070144906194 C 0.0 **** -0.24
19007 H 18.034931899874664 43.01503100684147 12.513084119904942 H 0.0 **** 0.06
19008 H 17.11487239577886 42.189719110894515 11.232123267859922 H 0.0 **** 0.06
19009 H 16.463147076189955 42.269066904580825 12.887530204284097 H 0.0 **** 0.06
19010 H 17.874287474140885 41.2427288504212 12.534976769558433 H 0.0 **** 0.06
19011 C 66.69585381943895 74.95315913901823 75.61782017972456 C 0.0 **** -0.24
19012 H 65.720292097449 74.8445585776376 76.0919279955101 H 0.0 **** 0.06
19013 H 67.3736169874193 74.19062417974212 76.00297540957322 H 0.0 **** 0.06
19014 H 67.09887542031436 75.94264371577489 75.8384283099316 H 0.0 **** 0.06
19015 H 66.5910504247631 74.83571833403948 74.54018491985664 H 0.0 **** 0.06
19016 C 7.841323054310408 70.1707002113294 102.07778597810673 C 0.0 **** -0.24
19017 H 8.504070972878907 70.32123650763467 101.225608188422 H 0.0 **** 0.06
19018 H 8.396195504881746 69.70163550745212 102.8907422334565 H 0.0 **** 0.06
19019 H 7.011689435495157 69.52762854282679 101.78383723954926 H 0.0 **** 0.06
19020 H 7.45313332106781 71.13420668281813 102.41038643816987 H 0.0 **** 0.06
19021 C 45.7161108632113 115.36233752140123 10.148879112157715 C 0.0 **** -0.24
19022 H 46.116752026734446 114.44779000543338 10.586537066347702 H 0.0 **** 0.06
19023 H 44.72353500953119 115.5547335187876 10.555955162024219 H 0.0 **** 0.06
19024 H 45.65001094622144 115.24795256129931 9.067321995836593 H 0.0 **** 0.06
19025 H 46.37517615153101 116.19730854069658 10.38640026842046 H 0.0 **** 0.06
19026 C 89.50374870854327 14.968076999623122 48.74332233911687 C 0.0 **** -0.24
19027 H 89.74239257784629 13.994358814555667 49.171816211655 H 0.0 **** 0.06
19028 H 88.92685308258822 14.830006252892673 47.82925952444822 H 0.0 **** 0.06
19029 H 90.42723756286708 15.49976669749691 48.51377414571303 H 0.0 **** 0.06
19030 H 88.91987995154759 15.546392940924662 49.45941305542121 H 0.0 **** 0.06
19031 C 94.73093931067885 100.85652528611487 115.98051782807983 C 0.0 **** -0.24
19032 H 93.82964099629379 100.5635447262778 115.44303513530281 H 0.0 **** 0.06
19033 H 95.6043918622778 100.65970953930687 115.35769180721894 H 0.0 **** 0.06
19034 H 94.80550688139712 100.28163353050849 116.90350271628347 H 0.0 **** 0.06
19035 H 94.68395077690963 101.91962336534272 116.21629210468905 H 0.0 **** 0.06
19036 C 66.79547546411496 113.76613940912247 52.70131313722089 C 0.0 **** -0.24
19037 H 66.14239346164368 113.80041482136318 53.572966751210345 H 0.0 **** 0.06
19038 H 66.42786360407507 114.45978067998524 51.944072511565025 H 0.0 **** 0.06
19039 H 66.80575063661018 112.75466679978732 52.29394278178148 H 0.0 **** 0.06
19040 H 67.80690727197978 114.04998120116943 52.99332605260253 H 0.0 **** 0.06
19041 C 91.08593769134356 23.796069014786028 114.25202273817415 C 0.0 **** -0.24
19042 H 91.95061690897822 23.30640169072032 114.69851534953247 H 0.0 **** 0.06
19043 H 90.59900258794991 24.42374664394552 114.99878977116758 H 0.0 **** 0.06
19044 H 90.38338589856974 23.040811518515028 113.8986262139673 H 0.0 **** 0.06
19045 H 91.40957862262547 24.41249867622433 113.41388317140195 H 0.0 **** 0.06
19046 C 105.04055417319393 107.30421383158239 112.43643727433567 C 0.0 **** -0.24
19047 H 104.31449707383013 107.28749000950552 113.24875822147428 H 0.0 **** 0.06
19048 H 105.6122914631369 106.37653486075271 112.44124647158145 H 0.0 **** 0.06
19049 H 105.71686456855304 108.14916997593517 112.57162757276218 H 0.0 **** 0.06
19050 H 104.51934678047635 107.40578871922023 111.48504287422266 H 0.0 **** 0.06
19051 C 68.48803146079686 72.97158964792646 81.8135328321143 C 0.0 **** -0.24
19052 H 69.38500173967995 72.38124708737877 81.62585503438947 H 0.0 **** 0.06
19053 H 67.60723345456435 72.34160007833617 81.68795018751089 H 0.0 **** 0.06
19054 H 68.44537253537655 73.80163998087409 81.10847424234075 H 0.0 **** 0.06
19055 H 68.51465326124276 73.35964138054038 82.8319458713413 H 0.0 **** 0.06
19056 C 0.7319517635305033 32.96837170930806 28.933694372428505 C 0.0 **** -0.24
19057 H 0.05918714303209072 32.45938227293712 29.623316323568446 H 0.0 **** 0.06
19058 H 1.020070371131112 32.28386630609472 28.13547007928608 H 0.0 **** 0.06
19059 H 1.622787510856483 33.29678181221678 29.470476941503705 H 0.0 **** 0.06
19060 H 0.22612624727906905 33.83463626874706 28.506203695546958 H 0.0 **** 0.06
19061 C 115.15267046400274 55.71009558683675 42.813859438694344 C 0.0 **** -0.24
19062 H 114.22953902312467 55.33507809180652 43.25651983291406 H 0.0 **** 0.06
19063 H 115.15000494781218 55.50733639774701 41.74295535199077 H 0.0 **** 0.06
19064 H 116.00407575987272 55.211442098814345 43.27570856305574 H 0.0 **** 0.06
19065 H 115.2247543119723 56.78449830637641 42.98100501583261 H 0.0 **** 0.06
19066 C 25.152437925433162 56.94733934021781 47.556801474653035 C 0.0 **** -0.24
19067 H 26.236182454031848 56.90062848598825 47.657805373028275 H 0.0 **** 0.06
19068 H 24.722677463924242 57.39610777119697 48.4525580417596 H 0.0 **** 0.06
19069 H 24.755645856667456 55.93997674262641 47.42827656058302 H 0.0 **** 0.06
19070 H 24.894524218963113 57.552284327608476 46.68797467767804 H 0.0 **** 0.06
19071 C 7.864931579680331 14.322712805299759 65.78273697903845 C 0.0 **** -0.24
19072 H 7.88101922604595 15.366830167380911 65.47287250619502 H 0.0 **** 0.06
19073 H 7.266155749365879 14.221040419048506 66.6881044308156 H 0.0 **** 0.06
19074 H 8.883391109291608 13.986374894325365 65.98163159496048 H 0.0 **** 0.06
19075 H 7.43047132840465 13.714551189691377 64.98858474312726 H 0.0 **** 0.06
19076 C 30.925036231040906 45.713147208711234 20.663579296394886 C 0.0 **** -0.24
19077 H 31.910900420935832 45.27154426299691 20.518463491794108 H 0.0 **** 0.06
19078 H 31.0004064224039 46.79846835884436 20.601868191541996 H 0.0 **** 0.06
19079 H 30.540424391306885 45.43014379049632 21.64385926324988 H 0.0 **** 0.06
19080 H 30.24762501271573 45.35011803761833 19.88997805063866 H 0.0 **** 0.06
19081 C 96.13713265248913 89.47069463463873 53.540976651061385 C 0.0 **** -0.24
19082 H 96.91397821856265 89.37821703855752 54.29968660984679 H 0.0 **** 0.06
19083 H 95.9970399687083 88.50980138512978 53.04494820473866 H 0.0 **** 0.06
19084 H 96.43275061356951 90.22017930130983 52.80685423762276 H 0.0 **** 0.06
19085 H 95.20217677737782 89.77541007258674 54.01369444781392 H 0.0 **** 0.06
19086 C 56.63692871969142 70.78979269416601 73.81284083723239 C 0.0 **** -0.24
19087 H 56.62742600088159 69.86916572511939 74.39713160551133 H 0.0 **** 0.06
19088 H 57.6537709392801 71.17955027491158 73.76715838913287 H 0.0 **** 0.06
19089 H 55.9865927016993 71.52580179813177 74.28523221130337 H 0.0 **** 0.06
19090 H 56.28002933934916 70.58355767962428 72.80402971131542 H 0.0 **** 0.06
19091 C 61.06792774884377 52.460846549158376 70.36167751773024 C 0.0 **** -0.24
19092 H 61.481298652503995 52.59701383787825 69.36231525455523 H 0.0 **** 0.06
19093 H 60.08902352484631 51.98510703262565 70.28700813184389 H 0.0 **** 0.06
19094 H 60.96575519166595 53.42974272542635 70.84854384970944 H 0.0 **** 0.06
19095 H 61.73479429280263 51.82831784507681 70.94710333107435 H 0.0 **** 0.06
19096 C 37.35065936493555 94.74834050375986 4.131450738744135 C 0.0 **** -0.24
19097 H 36.305436969487175 94.60518380805973 4.404566536970947 H 0.0 **** 0.06
19098 H 37.456296837172545 94.67790536177444 3.04824131324753 H 0.0 **** 0.06
19099 H 37.95898808326302 93.9796253730797 4.606663437226757 H 0.0 **** 0.06
19100 H 37.6807399086054 95.73227529847915 4.46534764907517 H 0.0 **** 0.06
19101 C 2.488795939762781 74.2443378998841 51.0816571629025 C 0.0 **** -0.24
19102 H 2.9431997731608988 73.25465410302814 51.05277762731348 H 0.0 **** 0.06
19103 H 3.0238495737097537 74.90946905326456 50.40342110020043 H 0.0 **** 0.06
19104 H 2.542092687284679 74.63945736799337 52.096247741657756 H 0.0 **** 0.06
19105 H 1.445708502385088 74.17379863518767 50.77280802112755 H 0.0 **** 0.06
19106 C 65.01297209927245 71.46864756250073 93.58824817378087 C 0.0 **** -0.24
19107 H 65.7176587057335 70.66791889490867 93.8175263486161 H 0.0 **** 0.06
19108 H 65.3205262738019 71.97036892889395 92.67005966377857 H 0.0 **** 0.06
19109 H 65.00027201913886 72.18550344366196 94.40919294207308 H 0.0 **** 0.06
19110 H 64.01666277818407 71.04800514549623 93.45708193552073 H 0.0 **** 0.06
19111 C 36.87774239401176 84.2475499477566 78.39716384884423 C 0.0 **** -0.24
19112 H 36.21999017689819 83.63117006930048 77.78481117364555 H 0.0 **** 0.06
19113 H 37.73355236668806 84.56750508515253 77.8013979050084 H 0.0 **** 0.06
19114 H 37.22646669023186 83.66757284062584 79.2512141073164 H 0.0 **** 0.06
19115 H 36.331869904511905 85.12253861545346 78.74975711361495 H 0.0 **** 0.06
19116 C 105.53155369997833 53.37117655291483 52.876921152121156 C 0.0 **** -0.24
19117 H 104.66122398321835 53.394234402553536 53.533406137320526 H 0.0 **** 0.06
19118 H 105.25217557492115 52.92858438404149 51.92013796122751 H 0.0 **** 0.06
19119 H 106.31734089971673 52.77318829199471 53.33858497634088 H 0.0 **** 0.06
19120 H 105.8936328096479 54.3865153035219 52.71647214111374 H 0.0 **** 0.06
19121 C 45.1147257783758 11.975019298948446 40.80324110232852 C 0.0 **** -0.24
19122 H 44.40563943493504 11.210511232815815 41.12128977581643 H 0.0 **** 0.06
19123 H 44.57690363339137 12.793012813769355 40.32309533072105 H 0.0 **** 0.06
19124 H 45.823694758676424 11.542146081895652 40.096899983270184 H 0.0 **** 0.06
19125 H 45.65266528650048 12.354407067313005 41.67167931950622 H 0.0 **** 0.06
19126 C 89.6476406169937 114.24820101432263 3.171090911296403 C 0.0 **** -0.24
19127 H 89.01809061860843 113.37240867066203 3.326192474571201 H 0.0 **** 0.06
19128 H 90.19971224239197 114.46504139276308 4.085935801549667 H 0.0 **** 0.06
19129 H 89.02341592130952 115.10374216812488 2.911104580051642 H 0.0 **** 0.06
19130 H 90.3493436856647 114.0516118257404 2.3611307890130746 H 0.0 **** 0.06
19131 C 71.90573101948354 50.59657961896494 0.46747868351334887 C 0.0 **** -0.24
19132 H 72.75885231174283 51.092045777414015 0.00203758267360854 H 0.0 **** 0.06
19133 H 71.12981763677178 50.43158990788845 -0.28063549997966675 H 0.0 **** 0.06
19134 H 71.51295361720736 51.22454687799056 1.2658970464312063 H 0.0 **** 0.06
19135 H 72.22336233629213 49.63909490657406 0.8796440691880321 H 0.0 **** 0.06
19136 C 18.25239327921937 12.32504591538705 108.56673662869262 C 0.0 **** -0.24
19137 H 18.98814256849544 13.124945789941307 108.63969583433389 H 0.0 **** 0.06
19138 H 17.333393259747453 12.716062414541085 108.1279244391817 H 0.0 **** 0.06
19139 H 18.04160643191741 11.933384259074472 109.5625042178355 H 0.0 **** 0.06
19140 H 18.64449059570892 11.526259944041385 107.9378299691569 H 0.0 **** 0.06
19141 C 13.903358374423718 105.81682951420373 50.10598094082894 C 0.0 **** -0.24
19142 H 13.36328223023196 106.39779204095228 49.3581538978932 H 0.0 **** 0.06
19143 H 14.041686298352147 104.7980551358186 49.7431157430301 H 0.0 **** 0.06
19144 H 13.331135917061502 105.79800718093011 51.03348896888059 H 0.0 **** 0.06
19145 H 14.876705278407783 106.27391449949084 50.287978645372505 H 0.0 **** 0.06
19146 C 93.76078911915025 75.88509954672762 37.49451869560124 C 0.0 **** -0.24
19147 H 94.587159633069 75.2201203180274 37.24285148886702 H 0.0 **** 0.06
19148 H 93.5557779931014 75.8207456784121 38.56374741745799 H 0.0 **** 0.06
19149 H 92.87278569043082 75.58766227177156 36.93582736362788 H 0.0 **** 0.06
19150 H 94.02708082774998 76.90945470987609 37.23544120440948 H 0.0 **** 0.06
19151 C 107.19353892914461 102.09285296404039 11.17898828519995 C 0.0 **** -0.24
19152 H 108.03015674856582 101.99983893544163 11.871941399373725 H 0.0 **** 0.06
19153 H 107.5152460735371 102.63827226986908 10.2917835400674 H 0.0 **** 0.06
19154 H 106.37960592741354 102.63323211365753 11.662955685476419 H 0.0 **** 0.06
19155 H 106.84862572305471 101.09929870015944 10.890338241797366 H 0.0 **** 0.06
19156 C 21.47831137820839 17.14352696127363 114.12192295434454 C 0.0 **** -0.24
19157 H 21.00842639629016 16.232999196284254 114.49551542608141 H 0.0 **** 0.06
19158 H 22.33371448107991 16.88162545351156 113.50036200600837 H 0.0 **** 0.06
19159 H 21.81204005474828 17.750403014238923 114.96408305715634 H 0.0 **** 0.06
19160 H 20.756554184695943 17.70796833051708 113.53080747621752 H 0.0 **** 0.06
19161 C 105.02040206628402 102.91413117706219 49.44391568187257 C 0.0 **** -0.24
19162 H 105.43823411571844 102.24378501221275 48.69239695334815 H 0.0 **** 0.06
19163 H 104.46117283403424 102.33330729680421 50.17706588626385 H 0.0 **** 0.06
19164 H 104.35513911576058 103.6299876261748 48.96244954326866 H 0.0 **** 0.06
19165 H 105.829690839151 103.44817471575561 49.943059163640584 H 0.0 **** 0.06
19166 C 30.227659928531068 87.07044986324735 20.035235849425987 C 0.0 **** -0.24
19167 H 29.246003124287824 86.63103856777317 20.21336394444819 H 0.0 **** 0.06
19168 H 30.70785082152284 87.28582887073975 20.989771629336445 H 0.0 **** 0.06
19169 H 30.11261108422096 87.99493031288674 19.468805214510326 H 0.0 **** 0.06
19170 H 30.840628251783016 86.37022547159697 19.46839146334986 H 0.0 **** 0.06
19171 C 86.1363278569006 116.21162486771686 54.14584668825967 C 0.0 **** -0.24
19172 H 86.8290504585975 115.37036732530811 54.18101984751971 H 0.0 **** 0.06
19173 H 85.24169890609713 115.92145092303798 53.594936454869696 H 0.0 **** 0.06
19174 H 86.61470990841167 117.05396757912962 53.64663600573917 H 0.0 **** 0.06
19175 H 85.86268514744444 116.49848558181014 55.160691259675474 H 0.0 **** 0.06
19176 C 52.62871477802577 37.77095594538446 13.893913361310638 C 0.0 **** -0.24
19177 H 52.13205377924739 38.51395166002495 13.269875551835497 H 0.0 **** 0.06
19178 H 53.422436112114035 38.250619588618136 14.467868306652854 H 0.0 **** 0.06
19179 H 53.057350323991784 36.99370056758194 13.26072251227215 H 0.0 **** 0.06
19180 H 51.903853640929455 37.325950672919234 14.57491890722633 H 0.0 **** 0.06
19181 C 69.02234412916411 18.190175820827555 8.385778061976978 C 0.0 **** -0.24
19182 H 69.35210412220036 19.086810130196476 7.860834029977639 H 0.0 **** 0.06
19183 H 68.31812802885221 18.467091808203563 9.170183679771284 H 0.0 **** 0.06
19184 H 69.88477967193143 17.692649273466948 8.829704014892442 H 0.0 **** 0.06
19185 H 68.53645383864915 17.51489256913599 7.68209484323242 H 0.0 **** 0.06
19186 C 101.45232480480078 106.34294433894217 73.04390156166133 C 0.0 **** -0.24
19187 H 100.87711663340718 107.18409836488411 73.42943284151121 H 0.0 **** 0.06
19188 H 101.10780704012456 105.42164821447417 73.5146456352551 H 0.0 **** 0.06
19189 H 102.50886828716719 106.49277123479962 73.26783409935905 H 0.0 **** 0.06
19190 H 101.31568016750828 106.27396059609495 71.9649097055466 H 0.0 **** 0.06
19191 C 93.00775191242923 71.53151537323876 13.675033253734625 C 0.0 **** -0.24
19192 H 93.14150843498695 71.1059715062091 12.681279519850648 H 0.0 **** 0.06
19193 H 91.94488358043367 71.69261163714572 13.860888005206164 H 0.0 **** 0.06
19194 H 93.53566629517297 72.48257526500214 13.737438333864048 H 0.0 **** 0.06
19195 H 93.4068332635043 70.84510040008396 14.421222555775074 H 0.0 **** 0.06
19196 C 53.583163737572114 61.40778371928832 113.68316184791681 C 0.0 **** -0.24
19197 H 54.255084461419365 60.56869440709238 113.85974483867307 H 0.0 **** 0.06
19198 H 53.80403129885869 62.20659207652329 114.39157114342447 H 0.0 **** 0.06
19199 H 52.5513379637068 61.08173797208758 113.81388562490261 H 0.0 **** 0.06
19200 H 53.72128757649693 61.77553379417168 112.66567389233757 H 0.0 **** 0.06
19201 C 75.52640818590808 87.02772981158549 97.02201869880363 C 0.0 **** -0.24
19202 H 75.62003168382239 86.06212671845074 96.52563453257153 H 0.0 **** 0.06
19203 H 75.62735784129762 86.89392280361173 98.0998808979131 H 0.0 **** 0.06
19204 H 74.5501640692145 87.45806897404898 96.7984575165741 H 0.0 **** 0.06
19205 H 76.30894938845333 87.69680690285387 96.66459449814062 H 0.0 **** 0.06
19206 C 29.956817575648074 55.9089581585181 106.49224903058382 C 0.0 **** -0.24
19207 H 30.276191860268227 55.92512072697122 105.45020497977748 H 0.0 **** 0.06
19208 H 30.41605401050117 55.06093461299304 106.9999368384093 H 0.0 **** 0.06
19209 H 28.87216670857009 55.81657644233382 106.53828188146838 H 0.0 **** 0.06
19210 H 30.262687785585456 56.83486624965703 106.9801277371383 H 0.0 **** 0.06
19211 C 49.02865728455146 31.662421005463216 113.18467683311522 C 0.0 **** -0.24
19212 H 49.514231263324945 32.613324696367954 112.9647062360964 H 0.0 **** 0.06
19213 H 49.33029781225693 31.3213165147385 114.17578317072902 H 0.0 **** 0.06
19214 H 49.32401801097632 30.923615669522064 112.43966228087736 H 0.0 **** 0.06
19215 H 47.94608363970363 31.792401120362513 113.15878240491081 H 0.0 **** 0.06
19216 C 104.44720579240607 95.36782374223549 71.14865711802042 C 0.0 **** -0.24
19217 H 104.40196807268057 94.60823891455931 71.92980977156134 H 0.0 **** 0.06
19218 H 104.23359429760643 94.90833847975097 70.18314252011271 H 0.0 **** 0.06
19219 H 105.44328895523199 95.8089010074504 71.1293935243433 H 0.0 **** 0.06
19220 H 103.71018820094355 96.14389919835031 71.35435083180289 H 0.0 **** 0.06
19221 C 69.954412282103 77.74811220827235 60.491128728387515 C 0.0 **** -0.24
19222 H 69.44869645886266 77.14726708890637 61.24715493670414 H 0.0 **** 0.06
19223 H 71.03286751228617 77.63638661390044 60.60031955524011 H 0.0 **** 0.06
19224 H 69.6820144883639 78.7965773761467 60.619282165772994 H 0.0 **** 0.06
19225 H 69.65233904671297 77.41360492141442 59.49879633089977 H 0.0 **** 0.06
19226 C 102.51552235152994 79.07307894457131 8.366891904483758 C 0.0 **** -0.24
19227 H 102.62505621744711 78.05480969609317 7.9946016972808565 H 0.0 **** 0.06
19228 H 103.45726347024274 79.60835033144483 8.241519533204539 H 0.0 **** 0.06
19229 H 102.24942206960151 79.04832981511203 9.423471796056731 H 0.0 **** 0.06
19230 H 101.73136724911353 79.58206250180453 7.806778116751705 H 0.0 **** 0.06
19231 C 58.760542615846106 70.50682107272965 34.40195361537491 C 0.0 **** -0.24
19232 H 58.44027847321561 69.89807236775056 35.247877308677516 H 0.0 **** 0.06
19233 H 59.57313403858976 71.16334506580304 34.714955949125965 H 0.0 **** 0.06
19234 H 57.922410928810336 71.10963202456668 34.050307091163916 H 0.0 **** 0.06
19235 H 59.105621900153324 69.8585818802242 33.59749658986078 H 0.0 **** 0.06
19236 C 46.58898027151159 42.25072235014154 79.37833860562978 C 0.0 **** -0.24
19237 H 47.15765968949796 41.357678193144544 79.637349827734 H 0.0 **** 0.06
19238 H 47.274721474703426 43.07993899460027 79.20314228951744 H 0.0 **** 0.06
19239 H 45.91664874628631 42.503282601322034 80.1989077165488 H 0.0 **** 0.06
19240 H 46.00675262133984 42.0630904804283 78.47655638708318 H 0.0 **** 0.06
19241 C 29.016521078729284 44.639802602481865 57.37393790253287 C 0.0 **** -0.24
19242 H 27.93985190947663 44.805051884104046 57.41849307930195 H 0.0 **** 0.06
19243 H 29.430241430532334 44.664747674527916 58.382996517528625 H 0.0 **** 0.06
19244 H 29.47902824320815 45.42077956074132 56.77168132209212 H 0.0 **** 0.06
19245 H 29.215693892088723 43.667480882081094 56.92401836176808 H 0.0 **** 0.06
19246 C 63.643171501762254 90.17580962351136 11.467616804584338 C 0.0 **** -0.24
19247 H 62.95643751923433 89.33739145554196 11.578243662849076 H 0.0 **** 0.06
19248 H 63.88150961658508 90.31286594103415 10.412578649578421 H 0.0 **** 0.06
19249 H 64.55845292614433 89.9707737376796 12.023694332625325 H 0.0 **** 0.06
19250 H 63.17721389064275 91.08119869156664 11.85629931610967 H 0.0 **** 0.06
19251 C 95.27454915227554 110.14750538159818 22.324070738862673 C 0.0 **** -0.24
19252 H 96.03842755927332 109.62765842250377 22.902951492854584 H 0.0 **** 0.06
19253 H 95.68001632097221 111.08861470102515 21.950584895547905 H 0.0 **** 0.06
19254 H 94.41322159271238 110.34990634060102 22.959795984617642 H 0.0 **** 0.06
19255 H 94.96837874690232 109.52421620364362 21.48415334714747 H 0.0 **** 0.06
19256 C 81.26314960403369 87.89428530694397 16.04462177504621 C 0.0 **** -0.24
19257 H 81.22488347707244 86.8048049060198 16.04608603211065 H 0.0 **** 0.06
19258 H 82.24865790696273 88.22346856784179 16.372650246319182 H 0.0 **** 0.06
19259 H 80.50471528842235 88.2848081810319 16.72258947083222 H 0.0 **** 0.06
19260 H 81.07344944811211 88.26187508386494 15.03650395860673 H 0.0 **** 0.06
19261 C 14.880520682108184 113.2726181309853 57.01078178234601 C 0.0 **** -0.24
19262 H 14.677611437582662 113.55390264110322 58.04344084778618 H 0.0 **** 0.06
19263 H 14.303997899768493 113.90970232501932 56.33912468942423 H 0.0 **** 0.06
19264 H 14.598333468352394 112.23105005562263 56.85529442274564 H 0.0 **** 0.06
19265 H 15.94383466204377 113.39541701955145 56.80386439982535 H 0.0 **** 0.06
19266 C 24.6631296463151 115.14163852274453 15.88156376054485 C 0.0 **** -0.24
19267 H 23.662142626264625 114.90555544769063 15.52014330437865 H 0.0 **** 0.06
19268 H 25.378924511305016 114.43956324389191 15.453239098621367 H 0.0 **** 0.06
19269 H 24.683602451051627 115.06466693037054 16.968858674410654 H 0.0 **** 0.06
19270 H 24.92639437854683 116.15649318910168 15.584913120661156 H 0.0 **** 0.06
19271 C 76.49612853208174 30.727805839917934 84.13852398742213 C 0.0 **** -0.24
19272 H 76.63339267766872 31.704779906809115 83.67638210213244 H 0.0 **** 0.06
19273 H 77.31644025848851 30.534856441393494 84.83037816791719 H 0.0 **** 0.06
19274 H 76.48459143857528 29.958750020441137 83.36602478303777 H 0.0 **** 0.06
19275 H 75.55139982654515 30.711951847377087 84.68060350439774 H 0.0 **** 0.06
19276 C 20.868904415704083 61.90936174783506 82.58990937340002 C 0.0 **** -0.24
19277 H 21.170817183528253 62.481552601677656 81.71244011690098 H 0.0 **** 0.06
19278 H 20.531809654424677 62.59212473984294 83.37031108141849 H 0.0 **** 0.06
19279 H 21.716994614325017 61.329946350252364 82.95451020488713 H 0.0 **** 0.06
19280 H 20.056468778692825 61.23418064733091 82.32157046022724 H 0.0 **** 0.06
19281 C 9.60222155809251 90.58697978199407 62.476019937036824 C 0.0 **** -0.24
19282 H 9.193550969297632 90.13929432773458 61.569375504693625 H 0.0 **** 0.06
19283 H 10.348055155017562 89.91694175681846 62.906158728309094 H 0.0 **** 0.06
19284 H 8.799649593849011 90.74759664754518 63.1955144820829 H 0.0 **** 0.06
19285 H 10.068012012103367 91.54103025553124 62.231445106791 H 0.0 **** 0.06
19286 C 21.426502436004228 83.76418186856995 99.1685959627518 C 0.0 **** -0.24
19287 H 22.09181870645969 84.6131732764569 99.01646862725684 H 0.0 **** 0.06
19288 H 21.704914175074236 83.24354227562907 100.08556017062529 H 0.0 **** 0.06
19289 H 21.510756032976673 83.08090141628873 98.32242326812445 H 0.0 **** 0.06
19290 H 20.398434064037218 84.11759269389685 99.24910178945214 H 0.0 **** 0.06
19291 C 17.23153213697799 69.31239316845259 94.47429219749208 C 0.0 **** -0.24
19292 H 17.532834874629742 70.35749672276543 94.4008197201488 H 0.0 **** 0.06
19293 H 16.89259588045627 69.1025503011567 95.48951642730583 H 0.0 **** 0.06
19294 H 18.079356399332568 68.67205602093657 94.23387747690003 H 0.0 **** 0.06
19295 H 16.41986969364541 69.1190850894279 93.7734291669396 H 0.0 **** 0.06
19296 C 65.02297639803626 38.98224741286744 49.36899596138164 C 0.0 **** -0.24
19297 H 65.23021452584422 40.02758180581298 49.14316804586764 H 0.0 **** 0.06
19298 H 63.97531822978748 38.76659745119435 49.160004568007025 H 0.0 **** 0.06
19299 H 65.23020820651908 38.790018350565994 50.422039631324935 H 0.0 **** 0.06
19300 H 65.6555928802851 38.34413749285198 48.75226987912288 H 0.0 **** 0.06
19301 C 26.720406323377688 92.24028410053506 67.08176793742345 C 0.0 **** -0.24
19302 H 26.338792025259863 92.69153683276409 67.99720139567296 H 0.0 **** 0.06
19303 H 27.77236957669254 91.98548013135849 67.21402250572967 H 0.0 **** 0.06
19304 H 26.618636226510745 92.94735400919001 66.25899584992393 H 0.0 **** 0.06
19305 H 26.15271478980344 91.33644112914078 66.8583037761189 H 0.0 **** 0.06
19306 C 43.94698329828472 46.025761235205664 0.28648971550201985 C 0.0 **** -0.24
19307 H 43.49541903537897 45.03509346224712 0.32223826486452545 H 0.0 **** 0.06
19308 H 43.17204915093916 46.78309666277222 0.3991440780991464 H 0.0 **** 0.06
19309 H 44.45200593389035 46.160780135443254 -0.6705824170265329 H 0.0 **** 0.06
19310 H 44.67137568499621 46.123690135631016 1.0957471722970595 H 0.0 **** 0.06
19311 C 115.79054321771433 46.566500865397074 84.49515606907124 C 0.0 **** -0.24
19312 H 114.88134471898019 46.09312966566284 84.12503887196348 H 0.0 **** 0.06
19313 H 115.53325658239577 47.489387349402705 85.0150446108392 H 0.0 **** 0.06
19314 H 116.44847946099755 46.79317655578876 83.65577472649784 H 0.0 **** 0.06
19315 H 116.2983354682089 45.88981906058984 85.18173503386609 H 0.0 **** 0.06
19316 C 102.34781808552847 92.38024405936872 5.724804182582318 C 0.0 **** -0.24
19317 H 101.7782309253437 92.75928103473868 6.5723496424590735 H 0.0 **** 0.06
19318 H 103.04240931489358 93.14755067803864 5.381750850401147 H 0.0 **** 0.06
19319 H 101.66585373718647 92.11857850602829 4.915853799729405 H 0.0 **** 0.06
19320 H 102.90616156807297 91.49529688670108 6.029382573018836 H 0.0 **** 0.06
19321 C 45.467532719745265 101.71088290338432 47.47040669360202 C 0.0 **** -0.24
19322 H 45.40565583665429 102.66765925078784 47.99013288204269 H 0.0 **** 0.06
19323 H 45.4891095152546 100.90272891989667 48.20172028112609 H 0.0 **** 0.06
19324 H 46.376134656447135 101.68251213733004 46.86913423185748 H 0.0 **** 0.06
19325 H 44.59933129453455 101.59187630443532 46.822746567329254 H 0.0 **** 0.06
19326 C 86.83433780760251 105.00017232278495 23.420899363617877 C 0.0 **** -0.24
19327 H 86.6152898138738 105.36659665001883 22.417787617021247 H 0.0 **** 0.06
19328 H 86.68092339284604 105.80345254618382 24.14217942000272 H 0.0 **** 0.06
19329 H 87.8696162846781 104.66339852131472 23.46627335289395 H 0.0 **** 0.06
19330 H 86.17105765510172 104.16914781696732 23.656968355622666 H 0.0 **** 0.06
19331 C 69.00187304666221 83.37347664356435 3.79393158290506 C 0.0 **** -0.24
19332 H 69.65097811285932 84.19989601207419 4.083528906367036 H 0.0 **** 0.06
19333 H 68.75454660193552 83.45888516214524 2.7355743615583776 H 0.0 **** 0.06
19334 H 68.08700577476625 83.4067119201899 4.38618769313166 H 0.0 **** 0.06
19335 H 69.51634740248707 82.42912624832721 3.972795931098318 H 0.0 **** 0.06
19336 C 38.25527751539124 90.0168323626306 114.51661013263517 C 0.0 **** -0.24
19337 H 37.933015278050235 90.3679838064811 113.53588706776769 H 0.0 **** 0.06
19338 H 37.5069450045668 89.33632470026885 114.92343659301436 H 0.0 **** 0.06
19339 H 38.37495846212647 90.86789457941089 115.18619169875736 H 0.0 **** 0.06
19340 H 39.20777596418051 89.49470842076482 114.41910457653871 H 0.0 **** 0.06
19341 C 82.13833993200467 110.15534445247198 89.98020128209646 C 0.0 **** -0.24
19342 H 82.43906318280148 111.13623481642567 89.61045183337134 H 0.0 **** 0.06
19343 H 82.31784379737638 110.10148660210031 91.05404282933321 H 0.0 **** 0.06
19344 H 82.71752038443032 109.3832893155914 89.47386263795795 H 0.0 **** 0.06
19345 H 81.0771420483236 110.00247484442204 89.78061678382699 H 0.0 **** 0.06
19346 C 45.38191681449695 12.409558480389276 95.89434214412483 C 0.0 **** -0.24
19347 H 45.38792124148864 11.323475731391515 95.79315777822578 H 0.0 **** 0.06
19348 H 44.56655649782169 12.708089790123921 96.55473573101071 H 0.0 **** 0.06
19349 H 45.23952899408778 12.863996799836642 94.91342342210427 H 0.0 **** 0.06
19350 H 46.331359794497416 12.740738768313534 96.3150660578103 H 0.0 **** 0.06
19351 C 64.07245533240803 14.214329861968395 16.604326434273787 C 0.0 **** -0.24
19352 H 64.79462607743585 13.726977948201068 17.26048234439787 H 0.0 **** 0.06
19353 H 63.06349361652258 14.029732664017843 16.974433379879613 H 0.0 **** 0.06
19354 H 64.1701632888927 13.81285364339584 15.596274899622045 H 0.0 **** 0.06
19355 H 64.26362346727888 15.287342845400588 16.588456656079558 H 0.0 **** 0.06
19356 C 2.776016831000703 45.933237309386755 62.58352701001067 C 0.0 **** -0.24
19357 H 3.05967945895776 46.94913827910642 62.30821861788283 H 0.0 **** 0.06
19358 H 2.008744255880032 45.96731763508461 63.35740705901901 H 0.0 **** 0.06
19359 H 3.65009597227305 45.402621864162086 62.96061963765396 H 0.0 **** 0.06
19360 H 2.3862397895047707 45.41458630097435 61.70776280531916 H 0.0 **** 0.06
19361 C 106.2784513854235 33.91105739070417 46.352294194535915 C 0.0 **** -0.24
19362 H 105.81338710247996 34.139902371388644 45.39361847758644 H 0.0 **** 0.06
19363 H 106.73579214854277 34.81456879159413 46.75748135020547 H 0.0 **** 0.06
19364 H 107.04369390366983 33.147993850687556 46.21178135306417 H 0.0 **** 0.06
19365 H 105.52140282843638 33.54512825926861 47.044725580800105 H 0.0 **** 0.06
19366 C 3.55938666776561 38.440464549048485 23.39834943331445 C 0.0 **** -0.24
19367 H 4.395591049104091 37.81808671390232 23.077492593385813 H 0.0 **** 0.06
19368 H 3.1831690822497514 38.07811989985712 24.355460030253397 H 0.0 **** 0.06
19369 H 2.7656741482140585 38.393223576258045 22.653203370836223 H 0.0 **** 0.06
19370 H 3.89657858816126 39.471206894043384 23.506538049558515 H 0.0 **** 0.06
19371 C 2.3371576008523647 29.103212866023426 90.98979340020111 C 0.0 **** -0.24
19372 H 1.6677667015981967 29.199979326491473 90.13543165036964 H 0.0 **** 0.06
19373 H 3.369076945477943 29.216631953541167 90.6573741632381 H 0.0 **** 0.06
19374 H 2.206769558964197 28.121354381603936 91.44395063524746 H 0.0 **** 0.06
19375 H 2.102875960167225 29.876069195135386 91.72253976236658 H 0.0 **** 0.06
19376 C 40.0856875389062 3.7423752040011493 83.46551270002675 C 0.0 **** -0.24
19377 H 39.27429395194093 3.3440194127509386 82.85620892748562 H 0.0 **** 0.06
19378 H 40.36797462480115 4.726761891940413 83.09383576754627 H 0.0 **** 0.06
19379 H 40.94318179649508 3.0722938723229447 83.40973158655561 H 0.0 **** 0.06
19380 H 39.75471640148885 3.825573207735701 84.50066204074054 H 0.0 **** 0.06
19381 C 113.91593991035472 90.1973381829394 13.144908758569017 C 0.0 **** -0.24
19382 H 114.36573007612257 89.21421323436539 13.001489151347599 H 0.0 **** 0.06
19383 H 114.64899073875398 90.8701670410668 13.592178132191108 H 0.0 **** 0.06
19384 H 113.05403927177389 90.10786474911879 13.805509024131183 H 0.0 **** 0.06
19385 H 113.59638050645947 90.59380832932933 12.181557767438534 H 0.0 **** 0.06
19386 C 48.20299841395885 107.40163524076252 71.614620964936 C 0.0 **** -0.24
19387 H 47.60923863932955 106.641058093899 71.10748222092121 H 0.0 **** 0.06
19388 H 47.548304326003986 108.20206426098127 71.96010617889644 H 0.0 **** 0.06
19389 H 48.941364589570924 107.80758774488197 70.92375421035723 H 0.0 **** 0.06
19390 H 48.71219233503393 106.95423646782103 72.46842941720814 H 0.0 **** 0.06
19391 C 113.49590741169845 114.97060386577014 11.893946722313189 C 0.0 **** -0.24
19392 H 112.70176613947469 115.3040082567505 12.56228057566588 H 0.0 **** 0.06
19393 H 113.60345385356993 113.8881985674019 11.96932935673695 H 0.0 **** 0.06
19394 H 114.43256039670061 115.45071662003797 12.177643578577886 H 0.0 **** 0.06
19395 H 113.24429819318135 115.24143331197855 10.868947146824041 H 0.0 **** 0.06
19396 C 71.2501324924011 51.904526602088026 36.5067065581604 C 0.0 **** -0.24
19397 H 70.22022643498781 51.58980706727047 36.33529432803772 H 0.0 **** 0.06
19398 H 71.46715086518034 52.78151120635604 35.897182996098735 H 0.0 **** 0.06
19399 H 71.92710746749921 51.09503467535458 36.23257938940577 H 0.0 **** 0.06
19400 H 71.3844126967847 52.150009882456914 37.55926042303264 H 0.0 **** 0.06
19401 C 7.329435757397064 77.35610015054641 25.108637054021465 C 0.0 **** -0.24
19402 H 7.577217679846825 76.86519361953887 26.048878387632044 H 0.0 **** 0.06
19403 H 7.65005615769816 76.73015711187205 24.276259856546957 H 0.0 **** 0.06
19404 H 7.838200674349565 78.31966982116688 25.056007888235982 H 0.0 **** 0.06
19405 H 6.251590189382526 77.51196218285133 25.052467780178326 H 0.0 **** 0.06
19406 C 88.50142034363765 42.484218657703025 16.34197992059202 C 0.0 **** -0.24
19407 H 87.52018709247943 42.15196191861696 16.679402017256663 H 0.0 **** 0.06
19408 H 88.47438172171454 43.55635314009038 16.147140156782804 H 0.0 **** 0.06
19409 H 88.76986188683193 41.955589525970424 15.428199174728416 H 0.0 **** 0.06
19410 H 89.24147928676567 42.27347266989034 17.114480340299703 H 0.0 **** 0.06
19411 C 78.43923028116558 10.401589589659864 84.40929641344096 C 0.0 **** -0.24
19412 H 78.56776021518058 11.405573897409369 84.81348636614274 H 0.0 **** 0.06
19413 H 78.83589560282758 10.365034964782723 83.39464211117871 H 0.0 **** 0.06
19414 H 77.37793490381995 10.14990226285127 84.39296592939885 H 0.0 **** 0.06
19415 H 78.97202408147078 9.68708941366134 85.03536600061966 H 0.0 **** 0.06
19416 C 113.00602212147339 52.16071978574615 40.859485269654414 C 0.0 **** -0.24
19417 H 113.30585778703595 51.11596784224554 40.94437899870816 H 0.0 **** 0.06
19418 H 113.52873437457698 52.62096468799331 40.0198593962526 H 0.0 **** 0.06
19419 H 113.26094917824305 52.686760535583346 41.77914023425299 H 0.0 **** 0.06
19420 H 111.9307443716196 52.217389594968495 40.69359014599611 H 0.0 **** 0.06
19421 C 38.47149577340792 33.86800792533105 8.7792192929345 C 0.0 **** -0.24
19422 H 38.87522162650916 33.64759157277949 7.790559044917416 H 0.0 **** 0.06
19423 H 37.51477767254599 33.35948599181627 8.901726153499766 H 0.0 **** 0.06
19424 H 38.32708589312736 34.94407055111498 8.881033028988242 H 0.0 **** 0.06
19425 H 39.16836494538828 33.52041189605754 9.542336822039317 H 0.0 **** 0.06
19426 C 4.302156545155299 41.848385984373415 115.72586269395892 C 0.0 **** -0.24
19427 H 4.955256816911287 41.61886479414799 116.56844330437455 H 0.0 **** 0.06
19428 H 4.8897166618628205 42.29063530677568 114.92086663583484 H 0.0 **** 0.06
19429 H 3.532149624371357 42.550948770256184 116.04365634402326 H 0.0 **** 0.06
19430 H 3.8318618309609747 40.931092612259924 115.37141280402237 H 0.0 **** 0.06
19431 C 91.69809084751762 61.15135350695187 0.902085225414055 C 0.0 **** -0.24
19432 H 90.67178296541965 61.46177978938797 0.7035740764105753 H 0.0 **** 0.06
19433 H 91.74627806140901 60.06305670379542 0.9424713603372652 H 0.0 **** 0.06
19434 H 92.02483521646477 61.565516211620796 1.8555815802603206 H 0.0 **** 0.06
19435 H 92.34822075232526 61.514537698104085 0.10629863299465114 H 0.0 **** 0.06
19436 C 92.75311725583504 51.17239708202274 64.71912385967582 C 0.0 **** -0.24
19437 H 93.1516313908258 51.03563829659936 63.71394652595476 H 0.0 **** 0.06
19438 H 92.11933961935381 50.323619309658255 64.977405114915 H 0.0 **** 0.06
19439 H 92.16455041815689 52.08914218283164 64.75435823705959 H 0.0 **** 0.06
19440 H 93.575934546669 51.2410809229103 65.429804608202 H 0.0 **** 0.06
19441 C 71.77872298451422 34.03016956386534 82.15586666321838 C 0.0 **** -0.24
19442 H 72.69555800349826 34.48732088519057 81.78326875649529 H 0.0 **** 0.06
19443 H 71.50491509356641 33.1914472321609 81.51533244110706 H 0.0 **** 0.06
19444 H 70.97655749946051 34.76864670611093 82.15127830856702 H 0.0 **** 0.06
19445 H 71.93786134153157 33.673263431998976 83.17358714670394 H 0.0 **** 0.06
19446 C 93.91085675451956 40.607765824665165 78.3005024305748 C 0.0 **** -0.24
19447 H 93.33711466148608 40.11274419708508 79.08404092194968 H 0.0 **** 0.06
19448 H 93.24555129647851 40.885666388317304 77.48283874130965 H 0.0 **** 0.06
19449 H 94.67902642489469 39.92987065419973 77.92985381387967 H 0.0 **** 0.06
19450 H 94.38189287484366 41.502883921551586 78.70667792285286 H 0.0 **** 0.06
19451 C 49.69372054190048 70.72055073107722 84.06581214131864 C 0.0 **** -0.24
19452 H 48.75697666381791 70.23566045994448 84.34239007823507 H 0.0 **** 0.06
19453 H 50.022549801390355 71.36628540814058 84.88010079653742 H 0.0 **** 0.06
19454 H 49.54162545398574 71.31752043917757 83.1662960224921 H 0.0 **** 0.06
19455 H 50.45168811716203 69.96139065557816 83.8745974472416 H 0.0 **** 0.06
19456 C 42.871827482724825 74.5979787788032 66.14019469197947 C 0.0 **** -0.24
19457 H 41.96833190755481 74.93032153284196 65.62912327240329 H 0.0 **** 0.06
19458 H 42.63165523619158 74.34234206608167 67.17273437180029 H 0.0 **** 0.06
19459 H 43.61337525692289 75.39709564751749 66.12629767186968 H 0.0 **** 0.06
19460 H 43.27289955095138 73.72035940179302 65.63344487504577 H 0.0 **** 0.06
19461 C 103.0539632718031 97.9959449123914 101.22039349339806 C 0.0 **** -0.24
19462 H 103.99034714810861 98.5438864244712 101.11013758580523 H 0.0 **** 0.06
19463 H 103.13306623356374 97.03723601450679 100.70791526879151 H 0.0 **** 0.06
19464 H 102.24075659025118 98.57597590254323 100.78483767499924 H 0.0 **** 0.06
19465 H 102.85520489826385 97.8273249830184 102.27911179181791 H 0.0 **** 0.06
19466 C 113.23624320749407 77.7740745731702 75.51262356802832 C 0.0 **** -0.24
19467 H 112.16258541023042 77.82097474387331 75.33314594123587 H 0.0 **** 0.06
19468 H 113.45818860751189 76.93333614214248 76.17044811738927 H 0.0 **** 0.06
19469 H 113.56717267406283 78.70005223587316 75.98212221504352 H 0.0 **** 0.06
19470 H 113.75774195779235 77.64074550351222 74.56450890713506 H 0.0 **** 0.06
19471 C 112.38654900860455 94.23567915591101 91.3770107947256 C 0.0 **** -0.24
19472 H 112.04069712573732 93.20520266484826 91.45948292971548 H 0.0 **** 0.06
19473 H 113.33699694699281 94.343151813529 91.90016023578227 H 0.0 **** 0.06
19474 H 111.64844014622926 94.90229495584344 91.82371504143998 H 0.0 **** 0.06
19475 H 112.51803254984486 94.49155752662955 90.3259588138722 H 0.0 **** 0.06
19476 C 106.09843912264645 97.95724426815201 28.234378807210618 C 0.0 **** -0.24
19477 H 105.15933656050743 97.5513415113536 27.85727227025385 H 0.0 **** 0.06
19478 H 106.08616450005456 97.94820100825663 29.324627202371403 H 0.0 **** 0.06
19479 H 106.21961636468492 98.98044226788704 27.879171999162452 H 0.0 **** 0.06
19480 H 106.92755242635437 97.34732211659875 27.875428846660185 H 0.0 **** 0.06
19481 C 50.102815504891 104.68095852682097 81.36458920682671 C 0.0 **** -0.24
19482 H 49.42599791154055 104.79987590147036 82.2108726032047 H 0.0 **** 0.06
19483 H 49.55476825948284 104.27138234028769 80.51574201134201 H 0.0 **** 0.06
19484 H 50.91071327285414 104.00237564549377 81.63783894546916 H 0.0 **** 0.06
19485 H 50.51947970515499 105.65125536030655 81.0947949312085 H 0.0 **** 0.06
19486 C 85.5158358371678 81.13401855525956 88.99972631954176 C 0.0 **** -0.24
19487 H 85.13879384024051 80.27118174274312 89.54803543462828 H 0.0 **** 0.06
19488 H 85.15137724468207 81.09814956448099 87.97236932178032 H 0.0 **** 0.06
19489 H 86.60560982627453 81.11803485742746 89.00008049783378 H 0.0 **** 0.06
19490 H 85.16610755469594 82.04927313338942 89.47681868250856 H 0.0 **** 0.06
19491 C 91.40310552690079 109.53112040775292 75.94446045926094 C 0.0 **** -0.24
19492 H 91.91944578072724 108.76314021107918 75.36816439889736 H 0.0 **** 0.06
19493 H 92.04612552825586 110.40575011510127 76.04213907411742 H 0.0 **** 0.06
19494 H 91.16430600789101 109.14182247303098 76.93496738235993 H 0.0 **** 0.06
19495 H 90.48191590026767 109.81162644397429 75.43244866470584 H 0.0 **** 0.06
19496 C 72.32653130837363 29.00252152295701 62.49762345905617 C 0.0 **** -0.24
19497 H 71.32200874291578 28.893582384144644 62.90759260101845 H 0.0 **** 0.06
19498 H 72.30638097809458 28.79213889516538 61.4280641527705 H 0.0 **** 0.06
19499 H 72.99838513416361 28.301044158498087 62.993304778525385 H 0.0 **** 0.06
19500 H 72.67719874656302 30.02089603159351 62.662233962957544 H 0.0 **** 0.06
19501 C 31.74792017768857 26.921071559646606 73.90165593856648 C 0.0 **** -0.24
19502 H 31.750410300857737 26.304160261199954 73.00280542901032 H 0.0 **** 0.06
19503 H 31.129353901966752 26.447354276609502 74.66479861198258 H 0.0 **** 0.06
19504 H 31.34363308833794 27.904704899968323 73.66427792425046 H 0.0 **** 0.06
19505 H 32.76749521528703 27.02581297863115 74.27292532487047 H 0.0 **** 0.06
19506 C 113.66818921482866 72.85597140788244 45.83428777888897 C 0.0 **** -0.24
19507 H 112.58753583146552 72.95877095451567 45.7385879839919 H 0.0 **** 0.06
19508 H 113.92311535701629 72.65269167090352 46.87482419317098 H 0.0 **** 0.06
19509 H 114.1509487772887 73.7801861844473 45.51697372909425 H 0.0 **** 0.06
19510 H 114.01237475042274 72.03383741865096 45.207742554763 H 0.0 **** 0.06
19511 C 52.7874760171097 98.22930373729741 114.7763254849611 C 0.0 **** -0.24
19512 H 51.800317160288245 98.22802733548298 115.23914484642464 H 0.0 **** 0.06
19513 H 52.79553511282316 97.53697625025313 113.93483714214865 H 0.0 **** 0.06
19514 H 53.531745026348716 97.91883309692673 115.50992388423313 H 0.0 **** 0.06
19515 H 53.02085905347289 99.23393143175315 114.42465165956418 H 0.0 **** 0.06
19516 C 47.29345058873011 28.996268714653894 32.47856324653128 C 0.0 **** -0.24
19517 H 48.11608233775104 29.01786894483135 31.764389352848866 H 0.0 **** 0.06
19518 H 47.66762189969734 28.68563353181034 33.45464400347271 H 0.0 **** 0.06
19519 H 46.53565094282044 28.289993654136566 32.13852172514754 H 0.0 **** 0.06
19520 H 46.854360820039915 29.990609271862382 32.556927591494286 H 0.0 **** 0.06
19521 C 19.36437550443651 34.424946350699 115.54491082019088 C 0.0 **** -0.24
19522 H 19.373488192679474 33.40205330590754 115.16931568430819 H 0.0 **** 0.06
19523 H 19.90431649213727 35.07125189586992 114.8527555989209 H 0.0 **** 0.06
19524 H 19.845758332737077 34.45690867869246 116.5231173610989 H 0.0 **** 0.06
19525 H 18.334303389638933 34.768813920420286 115.63652672473769 H 0.0 **** 0.06
19526 C 36.978842467313484 113.59143738028668 51.89196387250996 C 0.0 **** -0.24
19527 H 37.158774329775554 112.63918708855712 52.39225573747751 H 0.0 **** 0.06
19528 H 37.85415442560196 113.86248795100357 51.30161945474066 H 0.0 **** 0.06
19529 H 36.78898902394525 114.3628849692033 52.63800022026794 H 0.0 **** 0.06
19530 H 36.11223261445116 113.49937881099666 51.23646436083101 H 0.0 **** 0.06
19531 C 43.02207937042592 17.638651898780438 102.2439803798209 C 0.0 **** -0.24
19532 H 43.88998221710822 18.117679405141246 101.79078918143875 H 0.0 **** 0.06
19533 H 43.15983811308693 17.586432631628014 103.32438016345486 H 0.0 **** 0.06
19534 H 42.9115523459339 16.63132110377643 101.84251878564498 H 0.0 **** 0.06
19535 H 42.128025643959205 18.220986286688742 102.01897456553252 H 0.0 **** 0.06
19536 C 18.039610167460147 97.53976767194828 30.785604158098977 C 0.0 **** -0.24
19537 H 18.944964991726014 97.21061087616354 31.295769250540943 H 0.0 **** 0.06
19538 H 18.168423296793375 98.56796032947369 30.444898854920638 H 0.0 **** 0.06
19539 H 17.195350321391878 97.48821900595684 31.47417956987215 H 0.0 **** 0.06
19540 H 17.84943695859353 96.89312589520247 29.92905729913997 H 0.0 **** 0.06
19541 C 10.672420225830166 29.889567327071333 54.68916481896099 C 0.0 **** -0.24
19542 H 10.34466938863585 30.62215830926195 53.95196757541271 H 0.0 **** 0.06
19543 H 9.807231971630458 29.50729681582672 55.23175265813643 H 0.0 **** 0.06
19544 H 11.361407403707432 30.36187492814173 55.389353479576926 H 0.0 **** 0.06
19545 H 11.176137593364558 29.065785343003654 54.18280224205512 H 0.0 **** 0.06
19546 C 65.535068642662 114.00739480532272 44.212510323790355 C 0.0 **** -0.24
19547 H 66.17409555355039 113.14195910962752 44.03554800906085 H 0.0 **** 0.06
19548 H 65.41713354887241 114.15766447491868 45.2863238039746 H 0.0 **** 0.06
19549 H 64.55808198714811 113.83499095107817 43.76077925116567 H 0.0 **** 0.06
19550 H 65.99005687566023 114.89250344812595 43.76915685397802 H 0.0 **** 0.06
19551 C 50.234508081299026 77.50406005772189 71.72031665790178 C 0.0 **** -0.24
19552 H 50.93037426355994 77.36509434239639 70.89323641836697 H 0.0 **** 0.06
19553 H 49.34175331486614 78.01567385738656 71.36134704329322 H 0.0 **** 0.06
19554 H 50.709395524145634 78.10394106303545 72.49773723742584 H 0.0 **** 0.06
19555 H 49.95737163264113 76.5332358497285 72.12953742190436 H 0.0 **** 0.06
19556 C 36.785913479109496 2.8886085378803585 68.60132248044675 C 0.0 **** -0.24
19557 H 37.80123437813364 3.1046842509882993 68.26879770611407 H 0.0 **** 0.06
19558 H 36.45457234159929 1.9458196211988366 68.16583185444529 H 0.0 **** 0.06
19559 H 36.120951739942 3.6908374776270136 68.28234357272783 H 0.0 **** 0.06
19560 H 36.769117322593814 2.813236698192199 69.68852390267335 H 0.0 **** 0.06
19561 C 26.61229725308897 109.93871721822089 28.250598274164332 C 0.0 **** -0.24
19562 H 26.39207375251604 108.9567317385656 27.830485001709448 H 0.0 **** 0.06
19563 H 27.414075389419047 109.84836675434241 28.98355638141099 H 0.0 **** 0.06
19564 H 25.71982637967787 110.3352296458612 28.734221652413908 H 0.0 **** 0.06
19565 H 26.923647244795426 110.61331888129939 27.452607180523543 H 0.0 **** 0.06
19566 C 44.854187881719604 100.7712986976671 1.6400825339497214 C 0.0 **** -0.24
19567 H 45.17179341324443 100.07584705151018 0.86305311944834 H 0.0 **** 0.06
19568 H 43.78742069764108 100.6449140698075 1.825311246903599 H 0.0 **** 0.06
19569 H 45.048465974267465 101.79225427770862 1.3145421006934885 H 0.0 **** 0.06
19570 H 45.40907956698645 100.569469078103 2.556614595890103 H 0.0 **** 0.06
19571 C 45.127933062955094 18.3449610685538 31.8070701427782 C 0.0 **** -0.24
19572 H 45.05139913103844 18.508855069322195 30.731989074591837 H 0.0 **** 0.06
19573 H 44.29806277157044 17.718785681408598 32.13797613491482 H 0.0 **** 0.06
19574 H 45.08830413249939 19.30411161455629 32.324149237485074 H 0.0 **** 0.06
19575 H 46.07102300692077 17.848559193104826 32.032710170765796 H 0.0 **** 0.06
19576 C 39.69724563492727 51.30699911475031 74.98071335886314 C 0.0 **** -0.24
19577 H 39.68889336890311 52.36983130331126 74.73783071835342 H 0.0 **** 0.06
19578 H 39.91095352840193 50.73170190992602 74.08057728200001 H 0.0 **** 0.06
19579 H 38.72343088974867 51.01738136304678 75.37630961687057 H 0.0 **** 0.06
19580 H 40.4659106851708 51.11277688081165 75.72868844249507 H 0.0 **** 0.06
19581 C 107.33315617102457 69.27331478781832 15.231720144825744 C 0.0 **** -0.24
19582 H 107.43144205602636 68.27502862881386 14.806367890673044 H 0.0 **** 0.06
19583 H 106.96585561508152 69.19832968826569 16.255488445066533 H 0.0 **** 0.06
19584 H 106.62948441191617 69.85500978199093 14.635261409316342 H 0.0 **** 0.06
19585 H 108.30590460931893 69.76712608359031 15.229729972036381 H 0.0 **** 0.06
19586 C 21.7323099003181 94.04010277472341 109.12778290176796 C 0.0 **** -0.24
19587 H 22.000600064776577 94.08882888214868 110.18293601678745 H 0.0 **** 0.06
19588 H 22.148331209349976 93.13388997043779 108.68775269987685 H 0.0 **** 0.06
19589 H 22.132546282150344 94.91242725788479 108.6114053445693 H 0.0 **** 0.06
19590 H 20.64616545826732 94.02656469350853 109.02991045348438 H 0.0 **** 0.06
19591 C 103.35440802122528 11.08966194082555 23.46828416775554 C 0.0 **** -0.24
19592 H 102.4383056872017 10.882444085607432 22.91539789950292 H 0.0 **** 0.06
19593 H 103.51698872356974 12.166895025472257 23.512740940641493 H 0.0 **** 0.06
19594 H 104.19680226852651 10.615561704833397 22.964838193126184 H 0.0 **** 0.06
19595 H 103.26543188270239 10.692655714758303 24.479265987677877 H 0.0 **** 0.06
19596 C 16.319265571046763 72.04192564226918 81.99426255420099 C 0.0 **** -0.24
19597 H 16.645704521162873 73.01058307699296 81.6151433386054 H 0.0 **** 0.06
19598 H 15.750022030767429 71.52323824567756 81.22341879979544 H 0.0 **** 0.06
19599 H 15.691280247052998 72.18935312944186 82.87374798374992 H 0.0 **** 0.06
19600 H 17.190781743234904 71.44627227159884 82.26593624018471 H 0.0 **** 0.06
19601 C 84.09217339539987 63.141350498776376 64.71061138339186 C 0.0 **** -0.24
19602 H 84.2740610210173 63.978106800822246 65.38515104594376 H 0.0 **** 0.06
19603 H 84.57119953701047 63.338400013713795 63.75186826157546 H 0.0 **** 0.06
19604 H 83.01842144050374 63.02137598949545 64.56312959142065 H 0.0 **** 0.06
19605 H 84.50372874951216 62.229621408764075 65.14368785109178 H 0.0 **** 0.06
19606 C 115.96928262225603 95.19157227348884 95.00458229330792 C 0.0 **** -0.24
19607 H 115.69963964339586 94.94970110669794 93.9767778672574 H 0.0 **** 0.06
19608 H 115.50257186993497 94.47544399331954 95.68129963049876 H 0.0 **** 0.06
19609 H 115.62172231215317 96.19747089780273 95.24297028055622 H 0.0 **** 0.06
19610 H 117.05269312822958 95.14605088111458 95.11697653580009 H 0.0 **** 0.06
19611 C 78.4307945411287 66.88729502608592 91.98560756516608 C 0.0 **** -0.24
19612 H 78.08671346623595 67.31267265176919 92.92821885319395 H 0.0 **** 0.06
19613 H 79.503744016555 67.05169858553941 91.88339263178389 H 0.0 **** 0.06
19614 H 77.90888957459498 67.36943883370051 91.15885455768878 H 0.0 **** 0.06
19615 H 78.22368430802265 65.81759879430138 91.97207082392924 H 0.0 **** 0.06
19616 C 54.39600182134144 85.09440115517376 94.83424972495447 C 0.0 **** -0.24
19617 H 53.58041658587834 85.34199272188556 95.51356783632957 H 0.0 **** 0.06
19618 H 54.0178821872671 85.05103600242307 93.81233826479718 H 0.0 **** 0.06
19619 H 54.815743097333275 84.12613013168445 95.1075745702401 H 0.0 **** 0.06
19620 H 55.17080768605358 85.85809853282493 94.90310583621556 H 0.0 **** 0.06
19621 C 22.998233432148425 89.97611321590202 75.33217977618403 C 0.0 **** -0.24
19622 H 23.188224153972385 90.46803605487787 74.37878041044945 H 0.0 **** 0.06
19623 H 23.50860418085398 89.01314067958256 75.35324078996592 H 0.0 **** 0.06
19624 H 21.925439369780918 89.82168929122773 75.45395498423176 H 0.0 **** 0.06
19625 H 23.369568425581377 90.60227133082455 76.14389484081363 H 0.0 **** 0.06
19626 C 6.22366438554991 59.86176159712674 16.481018002879125 C 0.0 **** -0.24
19627 H 5.214554985647055 59.44894441733614 16.470908495481808 H 0.0 **** 0.06
19628 H 6.941730416559835 59.061188471054855 16.65641117136991 H 0.0 **** 0.06
19629 H 6.304098065031042 60.60317188828295 17.275087954194106 H 0.0 **** 0.06
19630 H 6.432321375677304 60.33289279948777 15.520453262315868 H 0.0 **** 0.06
19631 C 71.81546042838286 84.63717962377012 1.268611626694364 C 0.0 **** -0.24
19632 H 71.33401187353456 83.77144797467182 0.8126126893362127 H 0.0 **** 0.06
19633 H 72.51783896746997 84.30268834239911 2.0318186187462075 H 0.0 **** 0.06
19634 H 71.05702868129521 85.27446175131911 1.7259953628438431 H 0.0 **** 0.06
19635 H 72.34967661320931 85.20098080817507 0.5033376208134239 H 0.0 **** 0.06
19636 C 88.3668251238422 89.89247624062375 63.57036274619293 C 0.0 **** -0.24
19637 H 87.45911298145677 89.41146607518522 63.934933534434435 H 0.0 **** 0.06
19638 H 88.16773508001978 90.35813117998032 62.60469942601168 H 0.0 **** 0.06
19639 H 89.15396294302224 89.14692258549516 63.46035032187217 H 0.0 **** 0.06
19640 H 88.68491989683216 90.65391170402035 64.28197687816743 H 0.0 **** 0.06
19641 C 111.97407207591414 25.661991233102114 100.94042486886738 C 0.0 **** -0.24
19642 H 111.38140060875013 24.836435852505204 100.54748115939935 H 0.0 **** 0.06
19643 H 112.96420669803778 25.647465270267 100.48595888054408 H 0.0 **** 0.06
19644 H 112.0686308799781 25.55837914207968 102.02152669250827 H 0.0 **** 0.06
19645 H 111.48049901604227 26.60534906568298 100.70794998980492 H 0.0 **** 0.06
19646 C 15.345962700143957 63.52208603224803 54.86567049723581 C 0.0 **** -0.24
19647 H 15.79565650586963 63.223180083707256 53.918600434353806 H 0.0 **** 0.06
19648 H 16.100811055403256 63.490894139831305 55.651459272454815 H 0.0 **** 0.06
19649 H 14.534019569618295 62.83897112537435 55.113461327116596 H 0.0 **** 0.06
19650 H 14.953978940709362 64.53615518895268 54.77778684455754 H 0.0 **** 0.06
19651 C 13.986111017055038 8.344908440026359 32.34263334243843 C 0.0 **** -0.24
19652 H 13.732886549642188 9.404262960988092 32.327426591835916 H 0.0 **** 0.06
19653 H 13.721517471354773 7.894538027968736 31.38572857369323 H 0.0 **** 0.06
19654 H 13.433398300462812 7.8506304409577155 33.1416683147107 H 0.0 **** 0.06
19655 H 15.055898294426981 8.229179127158233 32.51507707810339 H 0.0 **** 0.06
19656 C 18.624076125700345 70.57338999027124 69.52188742812885 C 0.0 **** -0.24
19657 H 17.89443034771948 70.58685232774528 70.33140503552045 H 0.0 **** 0.06
19658 H 18.74791471853136 71.58188341317558 69.12739030577674 H 0.0 **** 0.06
19659 H 18.274324956316818 69.91183321856758 68.72948304263437 H 0.0 **** 0.06
19660 H 19.580777842061217 70.21181371210128 69.90108986136448 H 0.0 **** 0.06
19661 C 82.26409307993029 68.25700802714408 55.4163735741879 C 0.0 **** -0.24
19662 H 82.37599806828504 67.18073803085392 55.28302003475854 H 0.0 **** 0.06
19663 H 83.0406435581518 68.62248786297593 56.08835334558038 H 0.0 **** 0.06
19664 H 81.28355047989749 68.46924215986064 55.84365205960564 H 0.0 **** 0.06
19665 H 82.35548565732375 68.75321591860023 54.45040407904946 H 0.0 **** 0.06
19666 C 8.269200591311971 65.7650019972778 78.61598975341047 C 0.0 **** -0.24
19667 H 8.482181497256363 64.94268591119717 79.29795035957636 H 0.0 **** 0.06
19668 H 8.655826017780953 65.52423989894146 77.6256300379971 H 0.0 **** 0.06
19669 H 8.746894541847894 66.6740213668601 78.9822932812288 H 0.0 **** 0.06
19670 H 7.191015296130104 65.91950871600645 78.55821258852478 H 0.0 **** 0.06
19671 C 111.41427371757118 6.238349986046117 79.97570517301503 C 0.0 **** -0.24
19672 H 110.93433292688022 7.211440415052607 80.08487880296457 H 0.0 **** 0.06
19673 H 111.62700289757272 5.825851914876324 80.96268677671253 H 0.0 **** 0.06
19674 H 112.3447157659146 6.352698819256048 79.4213255286557 H 0.0 **** 0.06
19675 H 110.74907258146955 5.56429846081177 79.43644463460569 H 0.0 **** 0.06
19676 C 7.906026639882498 30.211519417322428 10.849433689065933 C 0.0 **** -0.24
19677 H 7.761735695652874 29.51437573149976 11.674488073689105 H 0.0 **** 0.06
19678 H 8.969741139590951 30.407266130918188 10.721302727165892 H 0.0 **** 0.06
19679 H 7.388179700433625 31.14522033515169 11.069158782585518 H 0.0 **** 0.06
19680 H 7.501890587253456 29.778056181114124 9.9338367678195 H 0.0 **** 0.06
19681 C 80.98007037195075 53.06928847083263 5.01419966363602 C 0.0 **** -0.24
19682 H 80.92561651649248 52.03757319590975 4.666490955044452 H 0.0 **** 0.06
19683 H 80.68742421998206 53.74013687727986 4.205215282719763 H 0.0 **** 0.06
19684 H 82.00023191614457 53.29558217225079 5.323992398454891 H 0.0 **** 0.06
19685 H 80.30436038677206 53.2030322103468 5.859583986840846 H 0.0 **** 0.06
19686 C 74.58874718203373 49.35610324181653 33.20634231150066 C 0.0 **** -0.24
19687 H 74.82048742082102 49.73165718303926 32.20899295322383 H 0.0 **** 0.06
19688 H 75.51502265600163 49.1817288571161 33.752937436606686 H 0.0 **** 0.06
19689 H 74.0342018864309 48.42127860229118 33.121764531134886 H 0.0 **** 0.06
19690 H 73.98392592728652 50.090768846126934 33.73900330378058 H 0.0 **** 0.06
19691 C 25.518038418438202 52.75850683353492 64.12203200987074 C 0.0 **** -0.24
19692 H 24.5309381458218 52.5614231673622 64.53983462616821 H 0.0 **** 0.06
19693 H 25.972248519450076 51.820029120618265 63.80254681346662 H 0.0 **** 0.06
19694 H 26.145951071089 53.22745892169287 64.87955138288152 H 0.0 **** 0.06
19695 H 25.422931679569523 53.426373818502135 63.26500724370027 H 0.0 **** 0.06
19696 C 43.279648577211304 83.4727840816289 4.54466222417804 C 0.0 **** -0.24
19697 H 42.92224111161724 82.69403907211421 5.218272697111132 H 0.0 **** 0.06
19698 H 43.789771175453325 83.01365099239402 3.6972675318059203 H 0.0 **** 0.06
19699 H 43.972219908855266 84.12443323788577 5.075970237677751 H 0.0 **** 0.06
19700 H 42.43324288692085 84.05842881566497 4.185039291736189 H 0.0 **** 0.06
19701 C 28.55074593342053 100.02434356109606 108.28868823324228 C 0.0 **** -0.24
19702 H 28.857808424018913 100.49210347884411 109.22370064328695 H 0.0 **** 0.06
19703 H 29.38631620975093 99.45732131460551 107.87575582639724 H 0.0 **** 0.06
19704 H 28.24855349096981 100.79503166206814 107.57923240419794 H 0.0 **** 0.06
19705 H 27.712429511245986 99.3533573837131 108.47551992158108 H 0.0 **** 0.06
19706 C 50.22226728647229 112.90670818297929 33.08058608107689 C 0.0 **** -0.24
19707 H 49.645106795525805 113.72023595213523 32.64023015065226 H 0.0 **** 0.06
19708 H 49.77929547809336 111.95180421539567 32.79632493441187 H 0.0 **** 0.06
19709 H 50.213928800040236 113.00297845630269 34.166632816680334 H 0.0 **** 0.06
19710 H 51.249069257867575 112.9536044139686 32.719257475820115 H 0.0 **** 0.06
19711 C 103.42673645616713 18.52911188272131 99.82776450744376 C 0.0 **** -0.24
19712 H 104.39978999292512 18.912549682690667 100.13482188925576 H 0.0 **** 0.06
19713 H 102.64147228441465 19.07027644604844 100.3562984273143 H 0.0 **** 0.06
19714 H 103.36248852616308 17.467958272488687 100.06727056474966 H 0.0 **** 0.06
19715 H 103.30421945753218 18.667272403753316 98.7538337920447 H 0.0 **** 0.06
19716 C 1.522139399187342 5.442594269830323 59.933131196050915 C 0.0 **** -0.24
19717 H 1.175614411532278 4.981946034738343 59.00704766501078 H 0.0 **** 0.06
19718 H 2.611784747246956 5.425867608373807 59.96170072752643 H 0.0 **** 0.06
19719 H 1.1270589523154158 4.887312442739514 60.7845109974809 H 0.0 **** 0.06
19720 H 1.1717300814848972 6.473570788386226 59.978514822931295 H 0.0 **** 0.06
19721 C 42.33436387196849 69.04460307623359 78.63178891583067 C 0.0 **** -0.24
19722 H 42.812590161697045 68.11637640989306 78.94512237888469 H 0.0 **** 0.06
19723 H 41.63528116123845 68.83751511256673 77.82014611537389 H 0.0 **** 0.06
19724 H 43.093682761127695 69.74631526377865 78.28673704835202 H 0.0 **** 0.06
19725 H 41.795631362815726 69.47799187517492 79.47421124246819 H 0.0 **** 0.06
19726 C 109.66955651055729 5.165570154527046 0.862715168487938 C 0.0 **** -0.24
19727 H 108.85512838503718 5.87797772635345 0.7309910283278498 H 0.0 **** 0.06
19728 H 109.29293375586307 4.152123980443179 0.722486262798725 H 0.0 **** 0.06
19729 H 110.07923833422996 5.264466491263661 1.868537395626248 H 0.0 **** 0.06
19730 H 110.45146227095665 5.3670767778352655 0.1303652245393323 H 0.0 **** 0.06
19731 C 34.06492542933278 4.6631805411186775 31.210990941386513 C 0.0 **** -0.24
19732 H 34.46134418388575 4.957281224946158 32.18225602365148 H 0.0 **** 0.06
19733 H 34.88208437485895 4.579714263384631 30.494512329800074 H 0.0 **** 0.06
19734 H 33.35435069133867 5.415130382761433 30.86576923709748 H 0.0 **** 0.06
19735 H 33.56033844570797 3.7008343338128356 31.300767094831656 H 0.0 **** 0.06
19736 C 90.8888531218474 9.893397523993102 14.856021199790373 C 0.0 **** -0.24
19737 H 90.48900201570163 9.99995021529557 15.864162336739337 H 0.0 **** 0.06
19738 H 90.26195729089847 10.447566476815254 14.156601137827256 H 0.0 **** 0.06
19739 H 90.89873909453152 8.839423683279762 14.578757137342603 H 0.0 **** 0.06
19740 H 91.90423209653554 10.28731047189575 14.8239581440907 H 0.0 **** 0.06
19741 C 89.1178671973835 50.92506291608976 49.783840257235966 C 0.0 **** -0.24
19742 H 89.31320034491472 50.52522617856202 50.77806830846987 H 0.0 **** 0.06
19743 H 88.85624795268114 50.109924876512395 49.10954708556255 H 0.0 **** 0.06
19744 H 90.01081660888804 51.43020158408916 49.4140804619102 H 0.0 **** 0.06
19745 H 88.29347260134861 51.63581580269005 49.833778242037965 H 0.0 **** 0.06
19746 C 71.41595419072377 40.205138915918724 25.6290062418891 C 0.0 **** -0.24
19747 H 70.77261052058819 40.59810306560172 26.415867110947488 H 0.0 **** 0.06
19748 H 70.81952434737943 39.61966650562647 24.929529691201935 H 0.0 **** 0.06
19749 H 72.18443506850682 39.57063997840339 26.071396621622227 H 0.0 **** 0.06
19750 H 71.88912808407312 41.032834941094904 25.100224860042886 H 0.0 **** 0.06
19751 C 34.19269088897198 70.08592107274214 19.51502793564353 C 0.0 **** -0.24
19752 H 34.29875600611865 69.38923463056486 20.346547120152195 H 0.0 **** 0.06
19753 H 34.22721519382753 71.10782641948026 19.891638416667007 H 0.0 **** 0.06
19754 H 33.23890458617831 69.91364181699092 19.016308062016265 H 0.0 **** 0.06
19755 H 35.006945974177654 69.93102684139058 18.806647783872194 H 0.0 **** 0.06
19756 C 31.79857572856463 100.35852952554035 20.698954409348232 C 0.0 **** -0.24
19757 H 31.791804820445492 99.81796363805688 21.64503347375978 H 0.0 **** 0.06
19758 H 32.764894303134184 100.84599270053099 20.566413545969965 H 0.0 **** 0.06
19759 H 31.009067665971656 101.11048357469912 20.70504805598489 H 0.0 **** 0.06
19760 H 31.628065542808386 99.66021289176018 19.880544347911837 H 0.0 **** 0.06
19761 C 81.62491298237154 25.078745642024202 47.74347000218199 C 0.0 **** -0.24
19762 H 81.37805381277761 24.50594672126455 46.849910895994185 H 0.0 **** 0.06
19763 H 81.10930908490096 24.650237214734815 48.60346312379562 H 0.0 **** 0.06
19764 H 81.31108231565042 26.113834930937855 47.609965620804985 H 0.0 **** 0.06
19765 H 82.701659380139 25.04381014677911 47.911221927896406 H 0.0 **** 0.06
19766 C 113.07548499404585 108.41066885383569 94.34957721756479 C 0.0 **** -0.24
19767 H 112.53853983140218 107.62609763296953 94.88285469258514 H 0.0 **** 0.06
19768 H 112.39245043413212 109.2309229012231 94.12445910427505 H 0.0 **** 0.06
19769 H 113.47852904578973 108.00785448903315 93.42024678116104 H 0.0 **** 0.06
19770 H 113.89253528534802 108.77867417894224 94.9712209620773 H 0.0 **** 0.06
19771 C 32.186413309205534 13.291036445912155 5.410693806699271 C 0.0 **** -0.24
19772 H 31.696729154916568 12.761342120209065 6.228366335966825 H 0.0 **** 0.06
19773 H 32.24620707020836 14.352878198812107 5.650449495108774 H 0.0 **** 0.06
19774 H 31.609750478249452 13.156600485001988 4.495326699611496 H 0.0 **** 0.06
19775 H 33.190969195405955 12.891420043221075 5.270176211105195 H 0.0 **** 0.06
19776 C 76.39085840597087 60.87787221644634 27.724288159421178 C 0.0 **** -0.24
19777 H 76.38240410592951 61.69947048264317 28.44075015917616 H 0.0 **** 0.06
19778 H 77.23847472138047 60.22388385288814 27.931878703408813 H 0.0 **** 0.06
19779 H 76.47910099511691 61.27755923116688 26.71412555220502 H 0.0 **** 0.06
19780 H 75.4646277714854 60.31123474291551 27.809965736700008 H 0.0 **** 0.06
19781 C 51.95162522298054 2.915548952046038 88.8745010826282 C 0.0 **** -0.24
19782 H 52.02120662138269 2.0293419963230974 89.50576937805968 H 0.0 **** 0.06
19783 H 51.03852016121805 2.867693462767903 88.2815239003751 H 0.0 **** 0.06
19784 H 52.815167990765495 2.9547401994474 88.21003743619698 H 0.0 **** 0.06
19785 H 51.93350317167583 3.807323182063925 89.49977317490124 H 0.0 **** 0.06
19786 C 0.4629573545860719 20.73076256955052 43.56423237369405 C 0.0 **** -0.24
19787 H -0.3441948290867405 21.08245157950229 42.92082175895383 H 0.0 **** 0.06
19788 H 0.09449085325099205 19.9290611444992 44.203833184766786 H 0.0 **** 0.06
19789 H 0.8198922363144696 21.55526569658599 44.18108083661249 H 0.0 **** 0.06
19790 H 1.281269083912564 20.358129367977185 42.94739736604952 H 0.0 **** 0.06
19791 C 46.97765124217332 67.53284020186197 104.74951002278922 C 0.0 **** -0.24
19792 H 46.3593999173859 68.18975607835006 104.13763029620074 H 0.0 **** 0.06
19793 H 46.77256761813683 67.71886721809852 105.80392201144915 H 0.0 **** 0.06
19794 H 48.029464925748215 67.72947248104418 104.54309622250761 H 0.0 **** 0.06
19795 H 46.748395400399545 66.49447665933445 104.5114095400053 H 0.0 **** 0.06
19796 C 105.03648829343228 76.80775277721494 113.38923418111507 C 0.0 **** -0.24
19797 H 104.6903657040873 77.75668481475657 113.79819270313558 H 0.0 **** 0.06
19798 H 104.28494782689324 76.03925992376071 113.56928031325157 H 0.0 **** 0.06
19799 H 105.97034166179668 76.52307153203222 113.87414391459937 H 0.0 **** 0.06
19800 H 105.20104165306151 76.91157925760061 112.31682791104753 H 0.0 **** 0.06
19801 C 77.93753232234243 99.40905052386154 19.60783510260586 C 0.0 **** -0.24
19802 H 78.1754434295276 98.95449139605176 20.570643179476804 H 0.0 **** 0.06
19803 H 78.79019794663432 99.99330726608218 19.261593326121726 H 0.0 **** 0.06
19804 H 77.07105119174079 100.06007792249471 19.71892369742497 H 0.0 **** 0.06
19805 H 77.71341123064727 98.62614314182687 18.88321952122126 H 0.0 **** 0.06
19806 C 63.18556767769567 93.59093240860378 4.299109303769853 C 0.0 **** -0.24
19807 H 63.924703452260644 93.94714643195007 3.5813601432929545 H 0.0 **** 0.06
19808 H 62.21581302956238 94.03317092991458 4.069285415754166 H 0.0 **** 0.06
19809 H 63.48783180629488 93.88007627320314 5.305164535890569 H 0.0 **** 0.06
19810 H 63.11319427702847 92.50548511864048 4.238009528348542 H 0.0 **** 0.06
19811 C 100.9860924313663 5.1749410630074095 50.99190553355052 C 0.0 **** -0.24
19812 H 100.55293404780156 5.495561879784603 51.939636561741764 H 0.0 **** 0.06
19813 H 101.70817495206188 5.918059082648554 50.65266160514082 H 0.0 **** 0.06
19814 H 100.1967254109802 5.069169178171222 50.24885581611002 H 0.0 **** 0.06
19815 H 101.48733130993352 4.21688109198368 51.12830062796141 H 0.0 **** 0.06
19816 C 51.181760209263814 1.6681768372838803 92.37342560528896 C 0.0 **** -0.24
19817 H 51.70025001235359 2.581099771692436 92.08158666655916 H 0.0 **** 0.06
19818 H 50.570073887305966 1.864123701174293 93.2548646082154 H 0.0 **** 0.06
19819 H 51.91350260971194 0.8941216224840218 92.60394356221454 H 0.0 **** 0.06
19820 H 50.544398251243194 1.3344338671512048 91.55516508735613 H 0.0 **** 0.06
19821 C 64.26495241692882 102.64880012120338 81.66393989423602 C 0.0 **** -0.24
19822 H 63.731341533476716 102.72888569388186 82.61038198014882 H 0.0 **** 0.06
19823 H 63.88461144706792 103.39690677574472 80.96765891288001 H 0.0 **** 0.06
19824 H 64.11472850152697 101.65302042581968 81.24495226766095 H 0.0 **** 0.06
19825 H 65.32888394160858 102.81618159869635 81.83138872659578 H 0.0 **** 0.06
19826 C 83.002493516834 34.36356482088803 11.756354209686066 C 0.0 **** -0.24
19827 H 83.55809444628818 34.140826497040166 12.667642445756002 H 0.0 **** 0.06
19828 H 82.04202517816341 33.848708137807705 11.781476663750922 H 0.0 **** 0.06
19829 H 83.5734934806998 34.02680574741089 10.891617670867532 H 0.0 **** 0.06
19830 H 82.83659351168353 35.43894155819879 11.685628852175086 H 0.0 **** 0.06
19831 C 100.8632942230164 0.07761171869241856 44.332196552840315 C 0.0 **** -0.24
19832 H 99.99157924610805 0.052953653229252495 44.98617587120444 H 0.0 **** 0.06
19833 H 100.74040033279371 -0.6560171546487146 43.53614651056756 H 0.0 **** 0.06
19834 H 101.75731547897843 -0.15787749776533744 44.91041523467899 H 0.0 **** 0.06
19835 H 100.96304204648044 1.0721719273037902 43.89881997352117 H 0.0 **** 0.06
19836 C 63.503858843148436 96.69137359685527 91.60153467532763 C 0.0 **** -0.24
19837 H 62.498671446446195 96.29608893321009 91.7480519044538 H 0.0 **** 0.06
19838 H 63.914132515971744 97.0045794069681 92.56205258367785 H 0.0 **** 0.06
19839 H 63.462442287544064 97.54743960332371 90.92774639030497 H 0.0 **** 0.06
19840 H 64.13882105281067 95.91878631112453 91.16869890555577 H 0.0 **** 0.06
19841 C 71.77315212625416 47.221892041608584 5.177122324493979 C 0.0 **** -0.24
19842 H 71.86722547553086 48.27640188044771 4.915886363998737 H 0.0 **** 0.06
19843 H 72.37060991953854 47.01294618508672 6.064635586748238 H 0.0 **** 0.06
19844 H 72.12579862313208 46.609862962898376 4.3476841104426 H 0.0 **** 0.06
19845 H 70.72736438158813 46.99120953378272 5.380804809421477 H 0.0 **** 0.06
19846 C 20.054799218167148 94.02850044735533 105.44757744771962 C 0.0 **** -0.24
19847 H 19.24646060186825 93.52400719571142 105.97660976068377 H 0.0 **** 0.06
19848 H 20.956281680146702 94.00891081857816 106.05955011970806 H 0.0 **** 0.06
19849 H 19.77041375414734 95.06203732847695 105.25144138267416 H 0.0 **** 0.06
19850 H 20.244053867375953 93.51805888543606 104.5029859566549 H 0.0 **** 0.06
19851 C 9.936857327611136 17.777384487176107 87.60652202928333 C 0.0 **** -0.24
19852 H 9.966998334672809 17.17523583256289 86.69898556977665 H 0.0 **** 0.06
19853 H 9.808530302893075 17.1253951813828 88.47113474246368 H 0.0 **** 0.06
19854 H 9.10199175732022 18.476476885953815 87.55109366602545 H 0.0 **** 0.06
19855 H 10.869908915558256 18.332430048804696 87.70487413886764 H 0.0 **** 0.06
19856 C 5.052064659012968 27.392187659032317 108.82911580904687 C 0.0 **** -0.24
19857 H 5.04630874785874 26.30770132237012 108.71902843614413 H 0.0 **** 0.06
19858 H 4.544725694812941 27.66685678965976 109.75408393106316 H 0.0 **** 0.06
19859 H 4.536467952374551 27.845181242124298 107.98229125927006 H 0.0 **** 0.06
19860 H 6.0822923187573 27.748648442976588 108.8594755947947 H 0.0 **** 0.06
19861 C 114.15124860054564 36.86705233163789 69.41887129585206 C 0.0 **** -0.24
19862 H 114.70876759398863 37.32444713347394 70.23643936821117 H 0.0 **** 0.06
19863 H 114.60209328817703 37.15333162218033 68.46830817829974 H 0.0 **** 0.06
19864 H 113.11744396585924 37.20914087660651 69.4494537950664 H 0.0 **** 0.06
19865 H 114.1792155846984 35.78211308938384 69.52267729533875 H 0.0 **** 0.06
19866 C 79.86306743450524 15.686903156638095 15.883579880577088 C 0.0 **** -0.24
19867 H 80.82124144971823 16.192432692995112 16.003964316759948 H 0.0 **** 0.06
19868 H 79.12755031245894 16.140977219694662 16.547964784980394 H 0.0 **** 0.06
19869 H 79.97641384471234 14.631272938526024 16.13260490706395 H 0.0 **** 0.06
19870 H 79.52944772113739 15.783025212467578 14.850342055270772 H 0.0 **** 0.06
19871 C 40.996592346540126 18.98526311649084 97.98098186780493 C 0.0 **** -0.24
19872 H 41.954189203750644 19.029718930177353 98.49848532487309 H 0.0 **** 0.06
19873 H 40.3474523649202 19.781246279000243 98.3486109904664 H 0.0 **** 0.06
19874 H 40.527570965070566 18.018272216900584 98.16666329384168 H 0.0 **** 0.06
19875 H 41.15612358120896 19.112759703980032 96.90996767099278 H 0.0 **** 0.06
19876 C 47.89639816609951 91.81165589824872 44.13933972331603 C 0.0 **** -0.24
19877 H 47.31348539777937 92.72666559463218 44.0297359828495 H 0.0 **** 0.06
19878 H 47.401827383703484 91.00000140736302 43.60611775165924 H 0.0 **** 0.06
19879 H 47.97702851170775 91.5572068968637 45.195838364861615 H 0.0 **** 0.06
19880 H 48.89352423597978 91.9657185357868 43.72533206039381 H 0.0 **** 0.06
19881 C 64.76971000962584 40.07951826541918 87.10603040935254 C 0.0 **** -0.24
19882 H 63.742739556557275 40.35279302285474 87.34825046600028 H 0.0 **** 0.06
19883 H 64.87559510470939 38.99482320855054 87.13877164843643 H 0.0 **** 0.06
19884 H 65.44637230387843 40.53309248670536 87.83013987685754 H 0.0 **** 0.06
19885 H 65.01420320973742 40.43827438302691 86.1058793567251 H 0.0 **** 0.06
19886 C 70.22345790587997 72.09865286166718 88.57386096929085 C 0.0 **** -0.24
19887 H 69.77676503563367 71.61901288779265 89.4450635681743 H 0.0 **** 0.06
19888 H 69.44995413390916 72.29238981575412 87.83016417589604 H 0.0 **** 0.06
19889 H 70.98148681924778 71.44137674698294 88.14748172587935 H 0.0 **** 0.06
19890 H 70.68456151245181 73.03981117218541 88.87361999324958 H 0.0 **** 0.06
19891 C 28.652085360554565 100.91724523455034 45.558277237856146 C 0.0 **** -0.24
19892 H 28.620231994401678 100.32208374552368 46.47036444539532 H 0.0 **** 0.06
19893 H 29.371120312501432 101.72798337680032 45.678972775050966 H 0.0 **** 0.06
19894 H 27.66400391515218 101.33333287660977 45.36093714414221 H 0.0 **** 0.06
19895 H 28.953979551754685 100.28554412588215 44.722734549292454 H 0.0 **** 0.06
19896 C 42.61286849270499 51.73687197386344 113.96210858046985 C 0.0 **** -0.24
19897 H 42.899764997468765 50.80169612398348 114.44382482239854 H 0.0 **** 0.06
19898 H 43.506314109915934 52.24886562816363 113.60420857496342 H 0.0 **** 0.06
19899 H 42.09244559236515 52.37091498014549 114.67993616261168 H 0.0 **** 0.06
19900 H 41.95327742682201 51.52382754803458 113.1208175068999 H 0.0 **** 0.06
19901 C 7.768789539384571 74.9047676938068 104.83178032929504 C 0.0 **** -0.24
19902 H 8.120345936252889 75.16427805751849 105.82982460384619 H 0.0 **** 0.06
19903 H 8.253686063933358 73.98524848778428 104.50333127740203 H 0.0 **** 0.06
19904 H 8.010525839519246 75.71106082940543 104.13952106677738 H 0.0 **** 0.06
19905 H 6.688378285264548 74.75745733901863 104.85454495425489 H 0.0 **** 0.06
19906 C 94.53769097130183 82.5183772457003 2.922987281222248 C 0.0 **** -0.24
19907 H 94.63860145391669 83.4885040393385 3.410226524842841 H 0.0 **** 0.06
19908 H 95.00956463452795 82.5550080856357 1.9409122257440288 H 0.0 **** 0.06
19909 H 93.4810029253504 82.27675040685719 2.810516032739514 H 0.0 **** 0.06
19910 H 95.02319541467674 81.7545024565024 3.531222243286436 H 0.0 **** 0.06
19911 C 39.98592477100519 35.74685670482461 109.57607311792349 C 0.0 **** -0.24
19912 H 38.987564378147894 35.83972894549652 110.00402902797289 H 0.0 **** 0.06
19913 H 39.91309256960895 35.72472802890269 108.48834759827615 H 0.0 **** 0.06
19914 H 40.44723246210742 34.82492374768668 109.92900052787938 H 0.0 **** 0.06
19915 H 40.5933833440465 36.59773136310076 109.8830345355808 H 0.0 **** 0.06
19916 C 72.62627943769382 72.85645261637359 35.79608931978666 C 0.0 **** -0.24
19917 H 72.59097464133919 73.01321482958966 34.718034061193094 H 0.0 **** 0.06
19918 H 71.62194280937206 72.6530388997511 36.1659388701909 H 0.0 **** 0.06
19919 H 73.01863630037923 73.75142640545036 36.27990026039791 H 0.0 **** 0.06
19920 H 73.27599894326534 72.0095854519771 36.01876527661679 H 0.0 **** 0.06
19921 C 38.468675079515094 69.8995688112129 53.55889482139309 C 0.0 **** -0.24
19922 H 37.43711088161234 69.97561574490814 53.900870057833636 H 0.0 **** 0.06
19923 H 38.90886829638575 70.895720800634 53.50851485001988 H 0.0 **** 0.06
19924 H 38.49018853887267 69.4419234453942 52.570104233433085 H 0.0 **** 0.06
19925 H 39.03853260118953 69.2850152539153 54.256090144285714 H 0.0 **** 0.06
19926 C 53.09922790212096 26.090213576041464 37.09820477508754 C 0.0 **** -0.24
19927 H 52.95758426551519 27.11349178323104 36.75104813667957 H 0.0 **** 0.06
19928 H 52.3491358386666 25.855987014241833 37.85256390024415 H 0.0 **** 0.06
19929 H 54.09494546986979 25.987998542919826 37.53099645920986 H 0.0 **** 0.06
19930 H 52.99716396051242 25.404599464302265 36.25730098874419 H 0.0 **** 0.06
19931 C 101.92730739315621 61.55858929071974 69.17973474564133 C 0.0 **** -0.24
19932 H 102.1808932792845 62.131549712338284 68.28824751939024 H 0.0 **** 0.06
19933 H 102.25356824613613 60.52601365507857 69.05336857843281 H 0.0 **** 0.06
19934 H 100.84785176894022 61.582975685877415 69.33252180633889 H 0.0 **** 0.06
19935 H 102.4264403674845 61.99348575823487 70.04561539379708 H 0.0 **** 0.06
19936 C 68.66519385644648 9.539428235171329 75.32076150583518 C 0.0 **** -0.24
19937 H 67.72850859508142 9.217956589569042 75.77532901907901 H 0.0 **** 0.06
19938 H 68.46205561633977 10.316162605604973 74.58186254067226 H 0.0 **** 0.06
19939 H 69.14284728499308 8.689094333031107 74.83298954816908 H 0.0 **** 0.06
19940 H 69.32664702550954 9.935373025815636 76.09155227581107 H 0.0 **** 0.06
19941 C 45.49627334132441 95.23442920656362 20.994224577010456 C 0.0 **** -0.24
19942 H 46.30877680877484 95.70999685235336 21.54369022912927 H 0.0 **** 0.06
19943 H 45.45550090390768 94.17509396843599 21.251200316425496 H 0.0 **** 0.06
19944 H 45.67005040613458 95.34266407949988 19.923665515616705 H 0.0 **** 0.06
19945 H 44.55192853296256 95.71007902624254 21.25913796553027 H 0.0 **** 0.06
19946 C 25.64064966094805 9.46701225618422 77.86628992814357 C 0.0 **** -0.24
19947 H 26.699582024874438 9.375644575409837 78.10766961237925 H 0.0 **** 0.06
19948 H 25.19720371317836 8.472914638401818 77.80068775261671 H 0.0 **** 0.06
19949 H 25.52858426795465 9.980113748216354 76.91168838120603 H 0.0 **** 0.06
19950 H 25.138332773539354 10.037862727967365 78.64745730259338 H 0.0 **** 0.06
19951 C 71.44114818597916 68.94362739333758 43.87785162256819 C 0.0 **** -0.24
19952 H 71.83784300957711 68.19713460784567 44.56590663466409 H 0.0 **** 0.06
19953 H 70.35905079378284 68.83352342105985 43.80742215813217 H 0.0 **** 0.06
19954 H 71.88628813971508 68.80271732939445 42.893107636099046 H 0.0 **** 0.06
19955 H 71.68195590910773 69.94084202902042 44.245755900007 H 0.0 **** 0.06
19956 C 109.99228148480006 16.346389262635455 62.676120349516445 C 0.0 **** -0.24
19957 H 109.35674016968335 17.037701002327864 63.23082329966575 H 0.0 **** 0.06
19958 H 110.83049176254104 16.041353966352688 63.303396223862 H 0.0 **** 0.06
19959 H 110.36936217049413 16.839383767595834 61.779385375717276 H 0.0 **** 0.06
19960 H 109.41235415297626 15.46927449491264 62.39144183397682 H 0.0 **** 0.06
19961 C 48.73171150615184 14.586643290973399 14.045204872756887 C 0.0 **** -0.24
19962 H 47.9875836778362 15.372445969412041 13.91695954062184 H 0.0 **** 0.06
19963 H 48.29769047555544 13.626376783858035 13.768494040334943 H 0.0 **** 0.06
19964 H 49.05041986039731 14.555651867506185 15.086732326147299 H 0.0 **** 0.06
19965 H 49.591389746251366 14.794442853170523 13.407964225619715 H 0.0 **** 0.06
19966 C 100.18394931211617 54.37477434187315 78.44440065965318 C 0.0 **** -0.24
19967 H 99.78323967005906 55.38410320614369 78.54850690683952 H 0.0 **** 0.06
19968 H 99.4538073934587 53.65492204166853 78.81381017467197 H 0.0 **** 0.06
19969 H 101.10532175140685 54.288781824182536 79.02069233887084 H 0.0 **** 0.06
19970 H 100.39292250861956 54.17484371210108 77.3935358237361 H 0.0 **** 0.06
19971 C 53.01391211731849 112.07568446787883 56.03895377791861 C 0.0 **** -0.24
19972 H 53.188810010233105 113.15028052496751 56.090344435767776 H 0.0 **** 0.06
19973 H 52.17037280108954 111.81428132048974 56.67745651966936 H 0.0 **** 0.06
19974 H 53.90497785004307 111.54604308522512 56.377187245328116 H 0.0 **** 0.06
19975 H 52.79216075887443 111.7931745543045 55.01014698850719 H 0.0 **** 0.06
19976 C 17.95119472701333 0.7629109368459552 104.37870882105742 C 0.0 **** -0.24
19977 H 18.493604901322783 -0.16393530294733694 104.56348212739005 H 0.0 **** 0.06
19978 H 16.968698413119256 0.5321320414837913 103.96552952828202 H 0.0 **** 0.06
19979 H 18.508431797100855 1.3751300469276373 103.66989392742502 H 0.0 **** 0.06
19980 H 17.833277525545896 1.3078991576112458 105.3148168738914 H 0.0 **** 0.06
19981 C 94.64288151596946 14.706099196066532 49.40860764676543 C 0.0 **** -0.24
19982 H 95.63806608104449 14.897457563327748 49.00700133040684 H 0.0 **** 0.06
19983 H 94.61676153570113 13.71142521490691 49.85344511553231 H 0.0 **** 0.06
19984 H 93.90891384737108 14.764646619071641 48.60430566349514 H 0.0 **** 0.06
19985 H 94.4084568049771 15.451524316355176 50.1686217373489 H 0.0 **** 0.06
19986 C 9.702569707089793 2.839658737803859 44.61647920699892 C 0.0 **** -0.24
19987 H 10.435845361085171 2.7344386162126852 45.4158355012832 H 0.0 **** 0.06
19988 H 9.807185835471614 3.8221735718646954 44.15537935046382 H 0.0 **** 0.06
19989 H 8.69926627174084 2.734962371103819 45.02805518684079 H 0.0 **** 0.06
19990 H 9.870314739219822 2.0663435017191034 43.86644244098329 H 0.0 **** 0.06
19991 C 40.09246981717981 107.20453471280484 38.534078289709655 C 0.0 **** -0.24
19992 H 39.021215106334864 107.1173368273623 38.351804164765625 H 0.0 **** 0.06
19993 H 40.53168884720732 106.20811657491544 38.59449831532739 H 0.0 **** 0.06
19994 H 40.2600457858701 107.7331547351788 39.4717973619981 H 0.0 **** 0.06
19995 H 40.55622786972689 107.75684693535993 37.7163951732257 H 0.0 **** 0.06
19996 C 6.07968774259254 15.028300217605736 44.81778786316681 C 0.0 **** -0.24
19997 H 7.067236739098149 14.986874790446251 44.35844934905564 H 0.0 **** 0.06
19998 H 5.31609156887086 14.96798222898775 44.041743638334836 H 0.0 **** 0.06
19999 H 5.972189272074445 15.966811065571388 45.36191969630775 H 0.0 **** 0.06
20000 H 5.964245496493817 14.192748910095379 45.50716873416319 H 0.0 **** 0.06
20001 C 69.2398948115588 94.9128159842106 60.33047867184612 C 0.0 **** -0.24
20002 H 68.58629641061162 94.13395589984651 59.93701190684524 H 0.0 **** 0.06
20003 H 68.73516646963898 95.4331866974758 61.14370773910318 H 0.0 **** 0.06
20004 H 69.47690979258388 95.62196010886305 59.536991741762165 H 0.0 **** 0.06
20005 H 70.16014908648037 94.4617111242699 60.701432081872326 H 0.0 **** 0.06
20006 C 78.23757394884879 112.88716201999688 3.2935654388012328 C 0.0 **** -0.24
20007 H 78.38904649294835 113.70922093775727 3.993761283855605 H 0.0 **** 0.06
20008 H 78.37826257081258 113.24730655297691 2.274047101813 H 0.0 **** 0.06
20009 H 77.22513682584943 112.49711333902036 3.405860411623566 H 0.0 **** 0.06
20010 H 78.95741000729126 112.09517911505839 3.5019260250140363 H 0.0 **** 0.06
20011 C 115.47969394509903 41.481425093590815 61.80523545915025 C 0.0 **** -0.24
20012 H 115.88700286410119 40.508491925938735 61.53157431887223 H 0.0 **** 0.06
20013 H 114.74539913049091 41.78981805053347 61.06151788205449 H 0.0 **** 0.06
20014 H 116.28573168229684 42.21374155754873 61.84735087326544 H 0.0 **** 0.06
20015 H 115.00065685298762 41.41256567059544 62.781407960876095 H 0.0 **** 0.06
20016 C 54.84931708180123 84.35142254274388 9.328908888676608 C 0.0 **** -0.24
20017 H 54.853848657569706 85.20743326016529 10.005088740164098 H 0.0 **** 0.06
20018 H 54.47518153328067 84.66182234980758 8.352971618328695 H 0.0 **** 0.06
20019 H 54.20561034535748 83.57148868159496 9.734982457074125 H 0.0 **** 0.06
20020 H 55.8641919394172 83.96672707793519 9.224685907079646 H 0.0 **** 0.06
20021 C 71.34613209910404 36.94706795484575 1.2365885800192107 C 0.0 **** -0.24
20022 H 70.4023535943094 37.332418991352796 0.8513540413834821 H 0.0 **** 0.06
20023 H 72.1094183603316 37.72238094327429 1.169731841263392 H 0.0 **** 0.06
20024 H 71.65236326620871 36.08262288210307 0.648055561564103 H 0.0 **** 0.06
20025 H 71.21898705592753 36.65014720196055 2.2784500240176246 H 0.0 **** 0.06
20026 C 64.23907446906048 110.3565374403839 58.50065417753387 C 0.0 **** -0.24
20027 H 64.40047595458668 109.50824437320676 59.166112230446394 H 0.0 **** 0.06
20028 H 65.1964937152037 110.82117283923432 58.26523903329622 H 0.0 **** 0.06
20029 H 63.59166383559909 111.08352268233733 58.991335248226996 H 0.0 **** 0.06
20030 H 63.76569964116783 110.01144479735916 57.581353184369355 H 0.0 **** 0.06
20031 C 76.07127080416348 88.8013526457054 101.62745145570784 C 0.0 **** -0.24
20032 H 75.72026457372937 88.3851737153403 100.68313175764558 H 0.0 **** 0.06
20033 H 75.25698628495633 89.34116846275188 102.11116892540093 H 0.0 **** 0.06
20034 H 76.89950074306728 89.48410476625864 101.43829632515946 H 0.0 **** 0.06
20035 H 76.40703756742863 87.99295068665637 102.27668554181867 H 0.0 **** 0.06
20036 C 24.232660243512704 116.34146699384733 3.5537863797044906 C 0.0 **** -0.24
20037 H 25.1820093345747 115.84872044727354 3.759054494272206 H 0.0 **** 0.06
20038 H 24.38979404611848 117.4181674483313 3.4833157238051484 H 0.0 **** 0.06
20039 H 23.530070578636302 116.12885267917113 4.360540352967135 H 0.0 **** 0.06
20040 H 23.827473239294484 115.97050758687006 2.6126612336584003 H 0.0 **** 0.06
20041 C 32.7245991079555 51.13516878257878 28.200548367633253 C 0.0 **** -0.24
20042 H 32.46080238351992 50.20620089576199 28.707192212746826 H 0.0 **** 0.06
20043 H 33.01646477902718 50.9175879786619 27.17330936503717 H 0.0 **** 0.06
20044 H 33.55595632531497 51.60938475521063 28.721848986834182 H 0.0 **** 0.06
20045 H 31.865982747324196 51.80570608469984 28.201299287824504 H 0.0 **** 0.06
20046 C 58.6947665253143 13.18438642245303 12.884964067723729 C 0.0 **** -0.24
20047 H 58.23516605311675 13.714641505159364 12.049497699596827 H 0.0 **** 0.06
20048 H 59.3368748593329 13.868785467263706 13.439200287560595 H 0.0 **** 0.06
20049 H 59.28936464891061 12.354600352733144 12.504029607516202 H 0.0 **** 0.06
20050 H 57.916070647185684 12.801553900711838 13.543914672334523 H 0.0 **** 0.06
20051 C 108.79536765426073 98.75135593495253 115.02055334330561 C 0.0 **** -0.24
20052 H 107.8867341940686 99.35232255711333 115.05243282443017 H 0.0 **** 0.06
20053 H 109.46730416474146 99.14850382820552 114.25882115880643 H 0.0 **** 0.06
20054 H 108.54012860134821 97.71993071855368 114.77755743793742 H 0.0 **** 0.06
20055 H 109.28692566503271 98.78525529692939 115.99217283997177 H 0.0 **** 0.06
20056 C 94.14802534354686 95.81321903353444 68.72960715324234 C 0.0 **** -0.24
20057 H 94.55481892744109 95.10509347583803 69.45230709420639 H 0.0 **** 0.06
20058 H 93.08642401275802 95.61207731966448 68.58290459209084 H 0.0 **** 0.06
20059 H 94.67234728287906 95.70477100950941 67.78056792770283 H 0.0 **** 0.06
20060 H 94.2773114446021 96.82905527425683 69.10282262887827 H 0.0 **** 0.06
20061 C 100.69482452961978 31.636659480354325 5.725776325183318 C 0.0 **** -0.24
20062 H 100.75258962855494 30.548347857844078 5.7131683824922845 H 0.0 **** 0.06
20063 H 99.6525636598086 31.944289478870814 5.808770378256838 H 0.0 **** 0.06
20064 H 101.11757838736034 32.03312529118935 4.801915903586746 H 0.0 **** 0.06
20065 H 101.25673121960708 32.0208290049074 6.577021063298133 H 0.0 **** 0.06
20066 C 20.770972229641373 8.193769868137409 26.467146383478678 C 0.0 **** -0.24
20067 H 19.918137857805426 7.516338264135328 26.43535217080057 H 0.0 **** 0.06
20068 H 20.423227531847367 9.220936988784956 26.354677150539032 H 0.0 **** 0.06
20069 H 21.45852199465154 7.951259019992619 25.656320986101434 H 0.0 **** 0.06
20070 H 21.285193133102773 8.086901595952526 27.422908420329293 H 0.0 **** 0.06
20071 C 38.24287331644885 8.161744860953846 50.72368348317343 C 0.0 **** -0.24
20072 H 39.08164639581689 7.907826994018961 50.07536379595567 H 0.0 **** 0.06
20073 H 38.43634593955966 7.789066146970356 51.72991602461994 H 0.0 **** 0.06
20074 H 37.332872796764605 7.705047327525804 50.33532366643007 H 0.0 **** 0.06
20075 H 38.12187782145577 9.244727450934676 50.75354619482715 H 0.0 **** 0.06
20076 C 90.999896578457 49.31379752786202 93.54845416005367 C 0.0 **** -0.24
20077 H 91.06613206223022 48.44246999492583 94.19983357652973 H 0.0 **** 0.06
20078 H 91.86855387343681 49.95315155312258 93.70839148194841 H 0.0 **** 0.06
20079 H 90.09158879724558 49.8697022571189 93.77686992786232 H 0.0 **** 0.06
20080 H 90.97475410679178 48.988282871542424 92.50807966962651 H 0.0 **** 0.06
20081 C 111.46119676555041 60.77616226817264 110.43365970195705 C 0.0 **** -0.24
20082 H 111.76996783360772 61.166792176276545 111.40306964804878 H 0.0 **** 0.06
20083 H 110.42636357019293 61.059814851718954 110.2406973682696 H 0.0 **** 0.06
20084 H 111.54543271364702 59.689403282024216 110.43513574426268 H 0.0 **** 0.06
20085 H 112.1024055051173 61.18982803051142 109.6546385116225 H 0.0 **** 0.06
20086 C 57.274230278353116 25.835441842415065 85.24402428343905 C 0.0 **** -0.24
20087 H 56.613042186206826 25.667161830681977 84.39435312903035 H 0.0 **** 0.06
20088 H 57.54370228694927 24.87805650524382 85.69012642892915 H 0.0 **** 0.06
20089 H 56.763909979026096 26.45095048234687 85.9851661717575 H 0.0 **** 0.06
20090 H 58.177077101469195 26.3461503273152 84.90664835071911 H 0.0 **** 0.06
20091 C 39.89491948949804 107.14659032547755 1.876785804988799 C 0.0 **** -0.24
20092 H 39.589968277917535 106.31746573896496 1.2388202059259754 H 0.0 **** 0.06
20093 H 40.122364880027334 106.77148320093656 2.8746401067174077 H 0.0 **** 0.06
20094 H 39.08671529603768 107.87495723250822 1.9367653822329203 H 0.0 **** 0.06
20095 H 40.78172826085526 107.6207952488738 1.4558987905939489 H 0.0 **** 0.06
20096 C 109.38129805535877 114.64655543064599 95.60920217947918 C 0.0 **** -0.24
20097 H 109.48800739964184 114.39023045438584 94.55511841037983 H 0.0 **** 0.06
20098 H 109.30422464478087 115.7287639347873 95.71349696297898 H 0.0 **** 0.06
20099 H 110.250196040908 114.28757977090814 96.15999041481183 H 0.0 **** 0.06
20100 H 108.48028664424011 114.1778286560279 96.00631762660134 H 0.0 **** 0.06
20101 C 107.69151232529316 41.39833389737851 94.01675882842181 C 0.0 **** -0.24
20102 H 107.29170655086429 40.782231755239536 94.82265429584055 H 0.0 **** 0.06
20103 H 108.64799741865153 40.990352936095036 93.68827620916741 H 0.0 **** 0.06
20104 H 107.83417629518001 42.41740677704928 94.37570227758741 H 0.0 **** 0.06
20105 H 106.99102409382505 41.40136643144436 93.1812846864812 H 0.0 **** 0.06
20106 C 13.976515922306476 106.93656036881708 21.70920589808435 C 0.0 **** -0.24
20107 H 14.475858805217172 105.97695707611507 21.576476272231687 H 0.0 **** 0.06
20108 H 14.556070966890047 107.7180088881166 21.217017755747477 H 0.0 **** 0.06
20109 H 13.895619727971848 107.1596936845732 22.772476899915517 H 0.0 **** 0.06
20110 H 12.979905628751794 106.89179440037242 21.27071546291971 H 0.0 **** 0.06
20111 C 100.27400534457072 91.46107185469481 60.23501476297911 C 0.0 **** -0.24
20112 H 101.10827474938728 91.12368527339464 60.850455945606505 H 0.0 **** 0.06
20113 H 99.35465572082495 90.98488004551055 60.57834506488101 H 0.0 **** 0.06
20114 H 100.45756005114558 91.1887084645598 59.19524562012382 H 0.0 **** 0.06
20115 H 100.17642653597358 92.54341954633199 60.31654260630122 H 0.0 **** 0.06
20116 C 15.12149189179437 44.18507592428274 74.88416664318734 C 0.0 **** -0.24
20117 H 14.110300757703865 44.5865503459905 74.82872598508789 H 0.0 **** 0.06
20118 H 15.66928795398637 44.45421600428194 73.98131503242354 H 0.0 **** 0.06
20119 H 15.07710822159072 43.099667068576935 74.97349563456717 H 0.0 **** 0.06
20120 H 15.629806172089047 44.60030718227838 75.75525656215231 H 0.0 **** 0.06
20121 C 55.695095685615094 95.18249188880628 16.84487757884532 C 0.0 **** -0.24
20122 H 54.706498460464246 95.04315048783704 16.406706947318632 H 0.0 **** 0.06
20123 H 56.26302856079423 95.89107576481163 16.241181328701057 H 0.0 **** 0.06
20124 H 56.21892153822299 94.22686608898147 16.872712606311108 H 0.0 **** 0.06
20125 H 55.59129520849557 95.57044900283648 17.858570208666517 H 0.0 **** 0.06
20126 C 103.63067532483171 97.27551160359778 91.06043208424316 C 0.0 **** -0.24
20127 H 104.03549743008008 98.1920995485716 91.49062230279151 H 0.0 **** 0.06
20128 H 102.57272450544602 97.41631546060361 90.83667247231801 H 0.0 **** 0.06
20129 H 103.74715490869244 96.45846429765558 91.77194113525573 H 0.0 **** 0.06
20130 H 104.16770108294509 97.03830164417994 90.1426752165257 H 0.0 **** 0.06
20131 C 4.607736800993507 79.71257503368327 19.099297085045038 C 0.0 **** -0.24
20132 H 4.2760592322174915 78.94349122593425 19.79777122604878 H 0.0 **** 0.06
20133 H 5.601490562642553 80.05802997285977 19.3831795872467 H 0.0 **** 0.06
20134 H 3.9102132036653785 80.54983661278516 19.12323127739947 H 0.0 **** 0.06
20135 H 4.641038266281015 79.29689443201579 18.091910043539656 H 0.0 **** 0.06
20136 C 43.77775789033967 83.46229239274714 53.85291778094927 C 0.0 **** -0.24
20137 H 44.27147978493199 84.394859074083 54.12773788789224 H 0.0 **** 0.06
20138 H 43.22595013971564 83.07663519952428 54.71025535131602 H 0.0 **** 0.06
20139 H 44.52709097281926 82.73315003978132 53.544053163950906 H 0.0 **** 0.06
20140 H 43.08791088488687 83.64560557753452 53.028690631667985 H 0.0 **** 0.06
20141 C 100.1961748647087 20.43348630805255 35.817356930858466 C 0.0 **** -0.24
20142 H 100.27507325795816 20.41762380541857 36.90373361870212 H 0.0 **** 0.06
20143 H 100.25434748394392 21.46355644805064 35.463791525597 H 0.0 **** 0.06
20144 H 99.24269760720378 19.999350044937657 35.51649019887981 H 0.0 **** 0.06
20145 H 101.01113471944532 19.854131436746073 35.384784086669185 H 0.0 **** 0.06
20146 C 72.59021332546257 16.826543330480423 21.91886403061514 C 0.0 **** -0.24
20147 H 73.14600527182708 17.35494570001989 22.693298146299583 H 0.0 **** 0.06
20148 H 71.63236375368237 17.322217732182825 21.755885059128474 H 0.0 **** 0.06
20149 H 72.41897134080867 15.796918430675557 22.2326740106017 H 0.0 **** 0.06
20150 H 73.16451793876266 16.83272583222131 20.991990251285216 H 0.0 **** 0.06
20151 C 58.59484953820094 99.82422657567497 88.57232013941109 C 0.0 **** -0.24
20152 H 58.29778268336937 100.8255723910541 88.2608577849224 H 0.0 **** 0.06
20153 H 58.95679028242774 99.85700136299317 89.60043868040657 H 0.0 **** 0.06
20154 H 59.38756129926117 99.46036134940695 87.91889829572801 H 0.0 **** 0.06
20155 H 57.73659777652255 99.1555587212793 88.51051280740745 H 0.0 **** 0.06
20156 C 93.09598957490107 70.56357700987789 64.97778307883627 C 0.0 **** -0.24
20157 H 93.89105941879492 70.46386222321541 65.71639383032013 H 0.0 **** 0.06
20158 H 93.05659451486548 71.59336836508803 64.62404913367195 H 0.0 **** 0.06
20159 H 92.14171129941477 70.2974332703213 65.43283524529375 H 0.0 **** 0.06
20160 H 93.2961459035287 69.89729963015412 64.13755038988364 H 0.0 **** 0.06
20161 C 115.97621034489809 59.39366847783797 86.9414167655145 C 0.0 **** -0.24
20162 H 116.90397767754015 59.82225347804067 87.32205532137701 H 0.0 **** 0.06
20163 H 116.07884446746884 59.19736544757961 85.87391062803479 H 0.0 **** 0.06
20164 H 115.1585153673375 60.094851390499706 87.10578332323212 H 0.0 **** 0.06
20165 H 115.76661286590307 58.46013603210236 87.46449237019354 H 0.0 **** 0.06
20166 C 82.94373348073361 97.55244820818669 63.12984952672139 C 0.0 **** -0.24
20167 H 83.45969964395317 98.51181729137335 63.184061424700474 H 0.0 **** 0.06
20168 H 83.34035756404512 96.97345295934605 62.296094298900016 H 0.0 **** 0.06
20169 H 81.87681093352359 97.72279579817706 62.98078233751892 H 0.0 **** 0.06
20170 H 83.09711628447502 97.00452554207263 64.05958520729956 H 0.0 **** 0.06
20171 C 92.43621612566344 79.54670821908903 0.9081167814857736 C 0.0 **** -0.24
20172 H 92.74753971148897 79.38334013190371 1.9406803663346892 H 0.0 **** 0.06
20173 H 91.92736309876975 78.65647178274315 0.537620242304655 H 0.0 **** 0.06
20174 H 93.31273040448238 79.74873723182833 0.2923392467155992 H 0.0 **** 0.06
20175 H 91.75707539136383 80.39852419057587 0.8642600104468272 H 0.0 **** 0.06
20176 C 116.46264935996922 100.40012097493644 64.52231947669554 C 0.0 **** -0.24
20177 H 116.97570161952554 101.34698057997986 64.35902178655925 H 0.0 **** 0.06
20178 H 116.92514492551791 99.62588884162608 63.90883393185908 H 0.0 **** 0.06
20179 H 115.41355537713189 100.5034674020389 64.2464947982557 H 0.0 **** 0.06
20180 H 116.53656022437315 100.12370334095314 65.5736350262809 H 0.0 **** 0.06
20181 C 60.6861481585241 54.25224500260556 86.49660894440925 C 0.0 **** -0.24
20182 H 60.84673670796044 55.01286620309108 85.73268181324636 H 0.0 **** 0.06
20183 H 60.64092113721325 53.269641430081755 86.02690828948889 H 0.0 **** 0.06
20184 H 59.748322604067205 54.45132624259828 87.01474775442105 H 0.0 **** 0.06
20185 H 61.50841094746108 54.27710178829843 87.21103245693266 H 0.0 **** 0.06
20186 C 19.124721851928353 42.09214354344297 43.774474593676814 C 0.0 **** -0.24
20187 H 19.494368391212532 43.11429185286096 43.84496669041886 H 0.0 **** 0.06
20188 H 19.944534189423745 41.42803086051785 43.49726501572934 H 0.0 **** 0.06
20189 H 18.342469955267916 42.03998375303706 43.01794685053511 H 0.0 **** 0.06
20190 H 18.718647662301912 41.78482645356712 44.73851969639975 H 0.0 **** 0.06
20191 C 78.36183414209276 53.16890168616763 92.16031774729194 C 0.0 **** -0.24
20192 H 77.89191537708871 53.817405723216694 91.4208437184459 H 0.0 **** 0.06
20193 H 77.78793176408897 52.24694071657976 92.2512351252908 H 0.0 **** 0.06
20194 H 78.38762348754847 53.67721608230758 93.12471673543496 H 0.0 **** 0.06
20195 H 79.37853538958322 52.93587859146089 91.84540550439604 H 0.0 **** 0.06
20196 C 90.10462787410705 112.36421524804705 33.460977476717574 C 0.0 **** -0.24
20197 H 89.01602919128956 112.36789055771135 33.42473848112556 H 0.0 **** 0.06
20198 H 90.50242705170754 112.4928370901154 32.453831876040255 H 0.0 **** 0.06
20199 H 90.45150086573457 111.41562246903118 33.87078820383326 H 0.0 **** 0.06
20200 H 90.4501087798497 113.18175637207052 34.094732550463306 H 0.0 **** 0.06
20201 C 15.463084051244124 65.08150953535471 37.87872744667483 C 0.0 **** -0.24
20202 H 15.790560402725418 64.20762995695853 37.317067775459435 H 0.0 **** 0.06
20203 H 15.151148284129079 65.86317842457322 37.18479813368734 H 0.0 **** 0.06
20204 H 16.28628209187309 65.4481205808074 38.493151061137965 H 0.0 **** 0.06
20205 H 14.624499783948806 64.80883166888793 38.51998964983355 H 0.0 **** 0.06
20206 C 67.81415924597212 47.337588310536134 7.640293651281922 C 0.0 **** -0.24
20207 H 67.60110994477787 46.61775751079577 8.429627859821267 H 0.0 **** 0.06
20208 H 68.24786810598602 46.8196630827138 6.783762765519469 H 0.0 **** 0.06
20209 H 68.51821522348672 48.08368614948461 8.008817957483984 H 0.0 **** 0.06
20210 H 66.89006903084572 47.829170596372784 7.337699796313984 H 0.0 **** 0.06
20211 C 58.24989626677274 1.1402177016482824 102.59033972337912 C 0.0 **** -0.24
20212 H 58.9048747945759 0.6302517581005276 101.8840311364061 H 0.0 **** 0.06
20213 H 57.62765424625843 1.8586743977956814 102.05598604352022 H 0.0 **** 0.06
20214 H 58.85362706150323 1.6639758021527769 103.33216827780731 H 0.0 **** 0.06
20215 H 57.61402818549357 0.4085402355011496 103.08973424724883 H 0.0 **** 0.06
20216 C 94.39661428896935 64.1220364101807 14.461266271323296 C 0.0 **** -0.24
20217 H 93.39091132394137 64.49095608269516 14.260144964372273 H 0.0 **** 0.06
20218 H 94.47401414927589 63.08420466694462 14.133797756173038 H 0.0 **** 0.06
20219 H 94.59818893882758 64.18268364697525 15.530166858980209 H 0.0 **** 0.06
20220 H 95.12104692387464 64.72897642328053 13.918961841039987 H 0.0 **** 0.06
20221 C 24.50433949786725 70.73661738795298 109.066105989329 C 0.0 **** -0.24
20222 H 25.052358729981393 71.21045099045872 108.2516831230459 H 0.0 **** 0.06
20223 H 24.049430994830743 69.81269013534305 108.70806173187539 H 0.0 **** 0.06
20224 H 23.725103919040066 71.4113238232407 109.41974714800976 H 0.0 **** 0.06
20225 H 25.19013226173965 70.5119785315091 109.88250514834412 H 0.0 **** 0.06
20226 C 97.73643264755805 19.357820299833193 99.99984039018398 C 0.0 **** -0.24
20227 H 97.18388493547664 18.575311685644408 100.52008194001732 H 0.0 **** 0.06
20228 H 97.24529693006238 19.580615155767447 99.05309751561603 H 0.0 **** 0.06
20229 H 98.75484273091337 19.01862166945436 99.81145744681103 H 0.0 **** 0.06
20230 H 97.7610393635945 20.255192721849497 100.61721154981751 H 0.0 **** 0.06
20231 C 30.290599525248908 88.29941482208142 34.309274853049686 C 0.0 **** -0.24
20232 H 29.47987780494975 88.85925333343769 33.843367052328716 H 0.0 **** 0.06
20233 H 30.283827774226978 87.27429837300303 33.937701946073474 H 0.0 **** 0.06
20234 H 30.152690365433337 88.29447062677309 35.39091787903206 H 0.0 **** 0.06
20235 H 31.243201333522883 88.76889747641536 34.0658929737433 H 0.0 **** 0.06
20236 C 63.92419667175587 29.742914246953745 38.21821525070064 C 0.0 **** -0.24
20237 H 64.27321081322302 28.71186034894299 38.15758538819181 H 0.0 **** 0.06
20238 H 64.6349053895137 30.397630494751553 37.71433263257942 H 0.0 **** 0.06
20239 H 63.83878199617336 30.035377237374036 39.26489223660738 H 0.0 **** 0.06
20240 H 62.9493199431248 29.82537601513519 37.73768805545594 H 0.0 **** 0.06
20241 C 75.25443343559874 10.871327321859383 61.37113335982164 C 0.0 **** -0.24
20242 H 76.30509721241737 10.793830635121594 61.09287662246524 H 0.0 **** 0.06
20243 H 74.63378976619703 10.765567792774675 60.48143773007041 H 0.0 **** 0.06
20244 H 75.07059836427607 11.842024479837164 61.830695770819034 H 0.0 **** 0.06
20245 H 75.00890145074834 10.08087041291634 62.08163951089128 H 0.0 **** 0.06
20246 C 27.319645569899933 49.64075986081701 29.56045698792967 C 0.0 **** -0.24
20247 H 26.55672122115766 50.413996445468406 29.477888774047543 H 0.0 **** 0.06
20248 H 28.216499993788716 49.95785925906295 29.02825112399279 H 0.0 **** 0.06
20249 H 26.946800391552244 48.71377376539911 29.12598126000946 H 0.0 **** 0.06
20250 H 27.559739361414955 49.4780781962527 30.611177985088986 H 0.0 **** 0.06
20251 C 22.76948004846099 10.3465466428446 9.809525839598365 C 0.0 **** -0.24
20252 H 22.203848016236066 10.409562567550253 8.879991895393303 H 0.0 **** 0.06
20253 H 23.594413371171953 11.058579389832147 9.781933175297695 H 0.0 **** 0.06
20254 H 23.164057093517073 9.337407485902204 9.926355028875221 H 0.0 **** 0.06
20255 H 22.11561426331835 10.581625029467602 10.649668496387108 H 0.0 **** 0.06
20256 C 20.834331857661766 66.62900657958818 24.45538890387315 C 0.0 **** -0.24
20257 H 20.28360099289506 67.37771240210697 25.02522931932961 H 0.0 **** 0.06
20258 H 20.132236407531707 65.92066081967926 24.0144339306381 H 0.0 **** 0.06
20259 H 21.518243627378183 66.09918517901673 25.117498310569985 H 0.0 **** 0.06
20260 H 21.401247422736418 67.11956412701767 23.663498090872245 H 0.0 **** 0.06
20261 C 70.24144701827689 34.02759298484847 16.216006137780056 C 0.0 **** -0.24
20262 H 70.51735132997123 34.899787483425996 15.623705110063128 H 0.0 **** 0.06
20263 H 70.59797714392406 34.155599161294106 17.23911843792129 H 0.0 **** 0.06
20264 H 70.6943913413541 33.13622187948164 15.782522655583563 H 0.0 **** 0.06
20265 H 69.15726298502094 33.91948033152761 16.22042733246505 H 0.0 **** 0.06
20266 C 47.75811926707834 99.89466382707462 27.931906635039354 C 0.0 **** -0.24
20267 H 47.381013212750815 100.86539641218872 27.609231459290015 H 0.0 **** 0.06
20268 H 48.81343435052264 99.98234109951443 28.188528312407527 H 0.0 **** 0.06
20269 H 47.6385755355016 99.17259807009884 27.123225985448755 H 0.0 **** 0.06
20270 H 47.19767786658599 99.55854086160576 28.804968387762983 H 0.0 **** 0.06
20271 C 71.29823003548398 66.12682272577845 36.58618094828724 C 0.0 **** -0.24
20272 H 70.80813941855058 65.65744583725606 37.43974673111706 H 0.0 **** 0.06
20273 H 70.54644140901189 66.57977956237738 35.94025997816069 H 0.0 **** 0.06
20274 H 71.85186222655318 65.37210016932707 36.026873989963576 H 0.0 **** 0.06
20275 H 71.98561395270121 66.89510037123065 36.93927404595658 H 0.0 **** 0.06
20276 C 105.77369017405434 24.170522900538373 18.587863482063277 C 0.0 **** -0.24
20277 H 105.54646684732873 23.118892181269274 18.41211543729907 H 0.0 **** 0.06
20278 H 105.86545440605158 24.686291842513356 17.632265417669476 H 0.0 **** 0.06
20279 H 106.71235489431137 24.251441979470513 19.135906002634385 H 0.0 **** 0.06
20280 H 104.97174714280874 24.62257317568273 19.170966262021622 H 0.0 **** 0.06
20281 C 17.512586829632 100.41865942569305 115.13699086986462 C 0.0 **** -0.24
20282 H 17.758391114435454 101.11314356322089 114.33288635440609 H 0.0 **** 0.06
20283 H 16.958676801321104 100.94442020960821 115.91472941514084 H 0.0 **** 0.06
20284 H 18.43151361455449 100.01127054789711 115.55761277343215 H 0.0 **** 0.06
20285 H 16.90231819628943 99.60674881490178 114.7418398844499 H 0.0 **** 0.06
20286 C 86.61127166808814 85.0967816250548 35.41489682586433 C 0.0 **** -0.24
20287 H 85.52364595286195 85.16551287349819 35.40043064330831 H 0.0 **** 0.06
20288 H 86.9112534899183 84.05289730353832 35.32092651658701 H 0.0 **** 0.06
20289 H 86.98865808754016 85.50067428155484 36.35528838327281 H 0.0 **** 0.06
20290 H 87.02184512140008 85.6696947962131 34.58335253208651 H 0.0 **** 0.06
20291 C 9.761337579987128 20.479346678267916 15.181099704300976 C 0.0 **** -0.24
20292 H 10.804342805396061 20.35034745562696 14.890728722589017 H 0.0 **** 0.06
20293 H 9.571107959907977 19.931179720108304 16.10457559623356 H 0.0 **** 0.06
20294 H 9.114743223637163 20.097942368142157 14.390667879674226 H 0.0 **** 0.06
20295 H 9.55713625627294 21.53886902470535 15.33884394025813 H 0.0 **** 0.06
20296 C 21.59693289608242 52.86165667734757 105.60171542014012 C 0.0 **** -0.24
20297 H 21.001988904857825 52.11100660217874 106.12229211619274 H 0.0 **** 0.06
20298 H 22.48167814072019 53.097875778219475 106.19287474747489 H 0.0 **** 0.06
20299 H 21.001854443685403 53.76264446311252 105.4594428061589 H 0.0 **** 0.06
20300 H 21.902971574123825 52.471644515936234 104.63103483403671 H 0.0 **** 0.06
20301 C 38.18825718752697 40.41593439466962 50.04030235222348 C 0.0 **** -0.24
20302 H 38.60003684305232 40.957842398194856 50.89209882782413 H 0.0 **** 0.06
20303 H 37.97598809990879 41.116705757149646 49.23302093777025 H 0.0 **** 0.06
20304 H 37.26758123263102 39.91487091255172 50.33974709523122 H 0.0 **** 0.06
20305 H 38.91051233900379 39.675022763909766 49.69842023649338 H 0.0 **** 0.06
20306 C 109.07048310679532 78.65649815285715 85.89332202092447 C 0.0 **** -0.24
20307 H 109.81546126010363 77.91544154534938 85.60555552718085 H 0.0 **** 0.06
20308 H 109.03140509123078 79.44383070704671 85.13992546087354 H 0.0 **** 0.06
20309 H 109.34008015949459 79.08703890897735 86.85676218258664 H 0.0 **** 0.06
20310 H 108.09379445384914 78.17839083855569 85.96966106721692 H 0.0 **** 0.06
20311 C 53.185407664373635 40.31998695753225 108.02408795858875 C 0.0 **** -0.24
20312 H 53.1463002992708 40.294253943862316 109.11288287313336 H 0.0 **** 0.06
20313 H 52.34737752340665 40.90497096539926 107.64355645075952 H 0.0 **** 0.06
20314 H 53.12626770764559 39.30348845670014 107.6340196619341 H 0.0 **** 0.06
20315 H 54.122725650762725 40.77702922268904 107.70495727239987 H 0.0 **** 0.06
20316 C 62.67774820477808 114.40388707395918 50.817200257693685 C 0.0 **** -0.24
20317 H 61.85215246867052 114.39073681401 51.52964730104006 H 0.0 **** 0.06
20318 H 62.47683238623623 113.69397276173386 50.014544355436726 H 0.0 **** 0.06
20319 H 63.6002113220079 114.12568449270624 51.326799199969486 H 0.0 **** 0.06
20320 H 62.78095473909928 115.40562455551948 50.400061915636996 H 0.0 **** 0.06
20321 C 112.85853446834403 33.927672836362035 6.7721431842804805 C 0.0 **** -0.24
20322 H 112.19880597759112 33.82074705505036 5.910985724460545 H 0.0 **** 0.06
20323 H 113.39689986079475 34.872801821692434 6.702509413651001 H 0.0 **** 0.06
20324 H 113.57178357340894 33.10306399339239 6.78811144075533 H 0.0 **** 0.06
20325 H 112.26664372716999 33.912456173766344 7.687573026796713 H 0.0 **** 0.06
20326 C 92.9851388437298 5.172152115600229 112.03819507945357 C 0.0 **** -0.24
20327 H 93.4603081379789 6.149734876842972 111.95030813826385 H 0.0 **** 0.06
20328 H 91.90879666568824 5.301760448308521 112.15952221197418 H 0.0 **** 0.06
20329 H 93.38794984062073 4.649402086525521 112.90542264154757 H 0.0 **** 0.06
20330 H 93.18228470218543 4.5902065785792185 111.13806961740853 H 0.0 **** 0.06
20331 C 68.54586863069045 115.7793338608771 93.07048852988518 C 0.0 **** -0.24
20332 H 69.07320383666948 116.32573422251812 93.85193407732746 H 0.0 **** 0.06
20333 H 67.85170150881277 115.07343704148816 93.52580887440038 H 0.0 **** 0.06
20334 H 69.26581242020447 115.23699622367 92.45767143956766 H 0.0 **** 0.06
20335 H 67.99361249605991 116.48123356689307 92.44602644077412 H 0.0 **** 0.06
20336 C 13.878582700783014 61.34586886200532 36.18054915789574 C 0.0 **** -0.24
20337 H 13.542941628297278 60.99387154786018 37.155723446355786 H 0.0 **** 0.06
20338 H 13.041556667363775 61.798473463617256 35.64914493808803 H 0.0 **** 0.06
20339 H 14.263442080618077 60.505024151151815 35.60476246828867 H 0.0 **** 0.06
20340 H 14.668117812961722 62.08615770130092 36.31430182088147 H 0.0 **** 0.06
20341 C 101.82239727096814 5.701315869486322 29.209987246737597 C 0.0 **** -0.24
20342 H 102.82092553695401 6.061187633027117 29.45516575002373 H 0.0 **** 0.06
20343 H 101.51343506393471 4.956933254543912 29.944210560232584 H 0.0 **** 0.06
20344 H 101.83225185927131 5.251149526032535 28.216743981529582 H 0.0 **** 0.06
20345 H 101.12236696545654 6.536955971598033 29.22252435603052 H 0.0 **** 0.06
20346 C 2.814437412042622 53.105314157547184 18.035216610674563 C 0.0 **** -0.24
20347 H 3.7427001969775944 52.53631365656034 17.981099955925174 H 0.0 **** 0.06
20348 H 2.459975070915675 53.1246551811773 19.066243473989495 H 0.0 **** 0.06
20349 H 2.0626513463612497 52.6337569295614 17.400609973841092 H 0.0 **** 0.06
20350 H 2.992130710569171 54.12431424598364 17.691912286797976 H 0.0 **** 0.06
20351 C 22.416958728145975 27.886616112989458 52.21030818235542 C 0.0 **** -0.24
20352 H 22.484809847081927 28.71175208212162 51.501299137306745 H 0.0 **** 0.06
20353 H 22.938171702177854 27.017848041278114 51.80660394190974 H 0.0 **** 0.06
20354 H 21.36989948039132 27.63711436110637 52.37788708747814 H 0.0 **** 0.06
20355 H 22.876242285227463 28.18008186989789 53.15394921330579 H 0.0 **** 0.06
20356 C 75.87065627550032 59.77384213919322 84.83112916920183 C 0.0 **** -0.24
20357 H 74.78371104752614 59.79469340778172 84.91416109395487 H 0.0 **** 0.06
20358 H 76.24921456798006 58.843621266349714 85.25554965619978 H 0.0 **** 0.06
20359 H 76.29226656494077 60.61901321071258 85.37573234717524 H 0.0 **** 0.06
20360 H 76.15641387726106 59.838226961112866 83.78105527958539 H 0.0 **** 0.06
20361 C 81.22167947382567 20.861245176134616 22.343535986040635 C 0.0 **** -0.24
20362 H 80.17116906088236 20.675282964087614 22.11705867756558 H 0.0 **** 0.06
20363 H 81.81156153345106 20.76442732992757 21.431776447091096 H 0.0 **** 0.06
20364 H 81.56772175459304 20.135951981111475 23.079782189443296 H 0.0 **** 0.06
20365 H 81.33324626157739 21.86837944654178 22.744525196578522 H 0.0 **** 0.06
20366 C 72.56926977737092 56.18652947949308 13.27242453971553 C 0.0 **** -0.24
20367 H 72.44716520015359 57.06479030061315 12.638676675710656 H 0.0 **** 0.06
20368 H 71.98954679246035 56.31534183847602 14.186997478845626 H 0.0 **** 0.06
20369 H 73.62274710123043 56.06410917301388 13.52428118450598 H 0.0 **** 0.06
20370 H 72.21752279803368 55.303144910379956 12.740360936702416 H 0.0 **** 0.06
20371 C 22.524061093574943 37.34061952182758 56.620727571872486 C 0.0 **** -0.24
20372 H 22.310670435176164 37.26403175455471 55.554901289332555 H 0.0 **** 0.06
20373 H 23.312988684809607 36.63662566826113 56.88526087561757 H 0.0 **** 0.06
20374 H 21.6227937614364 37.106364492496766 57.18795132744115 H 0.0 **** 0.06
20375 H 22.84763581856472 38.3549470179144 56.85510358594835 H 0.0 **** 0.06
20376 C 46.66366074238306 16.501999231608465 100.24599221520802 C 0.0 **** -0.24
20377 H 47.58078420770681 16.92502317583282 99.83709466269539 H 0.0 **** 0.06
20378 H 46.67354829421822 15.419424334902018 100.11588131472186 H 0.0 **** 0.06
20379 H 45.80442276124103 16.92237940535405 99.72280142452874 H 0.0 **** 0.06
20380 H 46.5947002593885 16.740248285507505 101.30733089677457 H 0.0 **** 0.06
20381 C 77.93861538508858 99.83652622249483 87.88695054227668 C 0.0 **** -0.24
20382 H 77.80517635323503 99.73762714956754 86.80953141222562 H 0.0 **** 0.06
20383 H 78.95627274672302 99.54937812351659 88.1544884257211 H 0.0 **** 0.06
20384 H 77.23035402104637 99.18808588804887 88.40212226491576 H 0.0 **** 0.06
20385 H 77.76399392736568 100.87226445987991 88.18037461672304 H 0.0 **** 0.06
20386 C 64.52694981712943 89.06324638806439 65.61325247768715 C 0.0 **** -0.24
20387 H 63.8719944598351 89.50264496180824 66.36624477031026 H 0.0 **** 0.06
20388 H 64.89842193758733 88.10265343862329 65.97022533074389 H 0.0 **** 0.06
20389 H 65.36704670426872 89.73304680060573 65.42821295821975 H 0.0 **** 0.06
20390 H 63.968510081588924 88.91627281017185 64.68835581310236 H 0.0 **** 0.06
20391 C 59.31325305108877 97.6918894698222 82.79218529867455 C 0.0 **** -0.24
20392 H 59.486765285649504 97.64673947944851 81.71709556288317 H 0.0 **** 0.06
20393 H 58.24092354524148 97.67207191848519 82.98749960919162 H 0.0 **** 0.06
20394 H 59.73808483313454 98.6134500348875 83.18994281185252 H 0.0 **** 0.06
20395 H 59.787002504123585 96.8362731877219 83.27247390581485 H 0.0 **** 0.06
20396 C 6.251586959644129 9.476553207418188 26.8014885723627 C 0.0 **** -0.24
20397 H 6.226820015172422 8.867617785383121 27.705516917728715 H 0.0 **** 0.06
20398 H 5.711721635504745 10.407372991297922 26.977013388417305 H 0.0 **** 0.06
20399 H 5.780565222466123 8.930941042563479 25.98345746640686 H 0.0 **** 0.06
20400 H 7.286255418059682 9.699028935603113 26.54153536847022 H 0.0 **** 0.06
20401 C 15.553630417461463 100.71786335860213 81.88403158535934 C 0.0 **** -0.24
20402 H 16.289598200166267 101.26142643200177 81.29055315748295 H 0.0 **** 0.06
20403 H 14.644973308943747 100.57914588033691 81.29720473425374 H 0.0 **** 0.06
20404 H 15.321261068080943 101.28689235712767 82.78381789837442 H 0.0 **** 0.06
20405 H 15.959193679757021 99.74549516066858 82.16297687600348 H 0.0 **** 0.06
20406 C 109.4797086376102 15.798852551033434 32.40207997616267 C 0.0 **** -0.24
20407 H 108.92335466941233 15.149088669266263 33.076868139140345 H 0.0 **** 0.06
20408 H 108.8127538385869 16.17065785905146 31.62359675065244 H 0.0 **** 0.06
20409 H 110.29466132489574 15.237656502893572 31.9445899819882 H 0.0 **** 0.06
20410 H 109.88849800589122 16.64040931860694 32.96347071617197 H 0.0 **** 0.06
20411 C 81.28149590915058 7.352105351533112 76.15922231570428 C 0.0 **** -0.24
20412 H 80.66259121022622 8.042957713704482 76.73092144802396 H 0.0 **** 0.06
20413 H 81.6126973409167 7.836114752454648 75.2400816757793 H 0.0 **** 0.06
20414 H 80.7010592452877 6.462970567016612 75.91342856744785 H 0.0 **** 0.06
20415 H 82.15058619777503 7.0661766747501815 76.75222051395889 H 0.0 **** 0.06
20416 C 106.92192368468787 74.57389292632053 89.68582745898675 C 0.0 **** -0.24
20417 H 107.91556933720963 74.16068668683994 89.51652061674832 H 0.0 **** 0.06
20418 H 106.96287550630569 75.29197049102945 90.50628688019162 H 0.0 **** 0.06
20419 H 106.23251758896927 73.77000386297289 89.94166238339966 H 0.0 **** 0.06
20420 H 106.57729292623898 75.07456818335012 88.78182977715835 H 0.0 **** 0.06
20421 C 49.08452674073254 43.49826371869033 81.70814037288315 C 0.0 **** -0.24
20422 H 49.94741098828891 42.8322351886649 81.66642895593503 H 0.0 **** 0.06
20423 H 48.8842467254737 43.896119237840324 80.71381808751909 H 0.0 **** 0.06
20424 H 49.2932277482424 44.319241851693285 82.39411323013408 H 0.0 **** 0.06
20425 H 48.21477703239995 42.94252224453224 82.05992138400649 H 0.0 **** 0.06
20426 C 66.09819370185085 61.12593780202047 99.64102787294382 C 0.0 **** -0.24
20427 H 65.14227508678641 60.620322011786804 99.50749439268571 H 0.0 **** 0.06
20428 H 65.95542117157959 62.20315148555185 99.54850911096344 H 0.0 **** 0.06
20429 H 66.7990855279341 60.78541961784375 98.87763735172678 H 0.0 **** 0.06
20430 H 66.49733194767515 60.895045974194126 100.62868955063368 H 0.0 **** 0.06
20431 C 49.96077097320202 8.43052887515816 76.39361911263501 C 0.0 **** -0.24
20432 H 50.203580081899105 8.227807920910692 77.43776567511242 H 0.0 **** 0.06
20433 H 49.99881291141807 9.505173474436287 76.21466444006637 H 0.0 **** 0.06
20434 H 48.95900325036328 8.060178691043092 76.1762067671832 H 0.0 **** 0.06
20435 H 50.68228553364048 7.928757030807404 75.74924601423206 H 0.0 **** 0.06
20436 C 52.419927466577576 116.10616114729747 58.88181183795322 C 0.0 **** -0.24
20437 H 53.39151284295542 115.98279258007027 58.401193341013794 H 0.0 **** 0.06
20438 H 52.34114663578282 115.41593708338955 59.722348777371934 H 0.0 **** 0.06
20439 H 51.62943803787414 115.89344216149424 58.161529178506726 H 0.0 **** 0.06
20440 H 52.31945137358775 117.13055546831592 59.24078232254453 H 0.0 **** 0.06
20441 C 62.5190078394914 95.86197603553157 51.12576479031711 C 0.0 **** -0.24
20442 H 62.50059197426331 95.85820666900645 50.035820008945386 H 0.0 **** 0.06
20443 H 62.974909531199806 96.78740073884691 51.47791921807469 H 0.0 **** 0.06
20444 H 63.10028054184502 95.01114320780084 51.480976702191526 H 0.0 **** 0.06
20445 H 61.50012959316937 95.79006425963362 51.506152452794026 H 0.0 **** 0.06
20446 C 50.47216593448053 7.990559413603023 103.6005221374175 C 0.0 **** -0.24
20447 H 50.56040778353224 8.796968529235727 104.32909658525654 H 0.0 **** 0.06
20448 H 50.20684552114477 8.407502065059077 102.62824956608478 H 0.0 **** 0.06
20449 H 49.6966935514082 7.294759195946767 103.92135795921052 H 0.0 **** 0.06
20450 H 51.42337367078443 7.464489691986643 103.52337020563732 H 0.0 **** 0.06
20451 C 25.131983334759866 103.73532395338276 71.35915193260337 C 0.0 **** -0.24
20452 H 25.73659213703786 103.89044267915878 72.25305370325336 H 0.0 **** 0.06
20453 H 24.317561115339643 103.04896836050165 71.58708023356104 H 0.0 **** 0.06
20454 H 25.754064292343628 103.31342908487633 70.56938867538835 H 0.0 **** 0.06
20455 H 24.722550135707152 104.68925276684325 71.02766105070984 H 0.0 **** 0.06
20456 C 22.76146084720432 75.22631984654572 17.531863519978515 C 0.0 **** -0.24
20457 H 23.765642122012395 75.59447387629058 17.322498951396653 H 0.0 **** 0.06
20458 H 22.440970976987188 75.5803647259923 18.512474310279742 H 0.0 **** 0.06
20459 H 22.763855248787678 74.13680714898913 17.522363111692144 H 0.0 **** 0.06
20460 H 22.07389072911178 75.59496952657088 16.77022925832722 H 0.0 **** 0.06
20461 C 31.852499861868793 3.94451427906003 80.11683830704447 C 0.0 **** -0.24
20462 H 31.243722188833573 3.066200647843374 79.90094502928704 H 0.0 **** 0.06
20463 H 31.603744923910767 4.740439527725954 79.41306199733924 H 0.0 **** 0.06
20464 H 32.90759412490888 3.6884196628139136 80.0175325073744 H 0.0 **** 0.06
20465 H 31.655220192384178 4.28359346627154 81.13367702961347 H 0.0 **** 0.06
20466 C 26.46666118412338 49.76859941387042 85.46498808337466 C 0.0 **** -0.24
20467 H 26.405696467521295 49.253034811759875 86.42367334903406 H 0.0 **** 0.06
20468 H 27.357367725990315 50.39665277934992 85.44671805297611 H 0.0 **** 0.06
20469 H 25.581044350950492 50.38935550774406 85.33008201373107 H 0.0 **** 0.06
20470 H 26.521884132948855 49.03473644149321 84.66095977115413 H 0.0 **** 0.06
20471 C 53.38966047266148 31.791369872931597 77.62995947670066 C 0.0 **** -0.24
20472 H 53.60826834431587 32.34097416967006 76.71452970495247 H 0.0 **** 0.06
20473 H 52.50479243205297 31.172639597104933 77.47861087942977 H 0.0 **** 0.06
20474 H 53.205641262135664 32.49692551792276 78.44143113151972 H 0.0 **** 0.06
20475 H 54.23830769191099 31.157192808803558 77.88475403601834 H 0.0 **** 0.06
20476 C 79.53298226708984 91.36641239633454 19.04745530871199 C 0.0 **** -0.24
20477 H 80.47292358692312 91.30885863958164 18.499010401624957 H 0.0 **** 0.06
20478 H 79.72806949070284 91.25522868726637 20.11444039216579 H 0.0 **** 0.06
20479 H 78.86906948319583 90.56836379274057 18.713938812924397 H 0.0 **** 0.06
20480 H 79.0619450589887 92.33199718576736 18.861689420498408 H 0.0 **** 0.06
20481 C 15.375789835635658 108.24457076693491 88.47307616919736 C 0.0 **** -0.24
20482 H 15.487988956125804 108.52033172724563 87.42459240365264 H 0.0 **** 0.06
20483 H 15.245472978354599 107.16466379541811 88.55274107742986 H 0.0 **** 0.06
20484 H 14.503184800685645 108.7473981179534 88.88962875320186 H 0.0 **** 0.06
20485 H 16.266672106480883 108.54504815009271 89.02421686305672 H 0.0 **** 0.06
20486 C 77.01033082330812 31.608255670429422 74.75218950737647 C 0.0 **** -0.24
20487 H 76.63982821937662 32.55144500155145 74.35011899521211 H 0.0 **** 0.06
20488 H 77.65524081407113 31.80772263988957 75.60806975858642 H 0.0 **** 0.06
20489 H 77.57765340518182 31.08318078789022 73.98333551896727 H 0.0 **** 0.06
20490 H 76.16790668820448 30.991836999944184 75.06615379133396 H 0.0 **** 0.06
20491 C 98.31872582119962 19.160009631124495 42.798790487266274 C 0.0 **** -0.24
20492 H 97.85916966619538 18.179513545842582 42.67689506907925 H 0.0 **** 0.06
20493 H 99.23234698184652 19.209038478870013 42.20623456620592 H 0.0 **** 0.06
20494 H 98.55653419192168 19.320993460471897 43.84992620989492 H 0.0 **** 0.06
20495 H 97.62434760591944 19.930054467447917 42.46086759626459 H 0.0 **** 0.06
20496 C 76.71735938362869 35.18307528366381 51.677760806996076 C 0.0 **** -0.24
20497 H 76.23733264569341 35.946606692657554 51.06484389585704 H 0.0 **** 0.06
20498 H 76.94278141348673 34.312549931898786 51.06131979909043 H 0.0 **** 0.06
20499 H 76.04762447855245 34.89234361988582 52.486589697293766 H 0.0 **** 0.06
20500 H 77.64095786554256 35.58157576453692 52.096327545112544 H 0.0 **** 0.06
20501 C 105.65819136098213 35.664658123059894 66.94061197834051 C 0.0 **** -0.24
20502 H 105.21117016253183 35.08418730926519 66.13378942875082 H 0.0 **** 0.06
20503 H 105.15263906174803 35.43106058867755 67.87815402536523 H 0.0 **** 0.06
20504 H 105.55330541060991 36.72772570932335 66.72508198358389 H 0.0 **** 0.06
20505 H 106.71574076945646 35.41334103064298 67.02620975371045 H 0.0 **** 0.06
20506 C 30.280297253450904 12.991383916175362 32.6241901885393 C 0.0 **** -0.24
20507 H 30.0032398126027 13.225244767912905 33.65281467009575 H 0.0 **** 0.06
20508 H 30.51700279684841 11.930651173726456 32.54531395886127 H 0.0 **** 0.06
20509 H 31.152154253725726 13.581162131725687 32.34054778763783 H 0.0 **** 0.06
20510 H 29.449241322799367 13.229788504210408 31.96074521603495 H 0.0 **** 0.06
20511 C 9.11691015095019 95.36969443514832 41.30769850330873 C 0.0 **** -0.24
20512 H 9.501697465466663 94.49680486489765 41.833877573586776 H 0.0 **** 0.06
20513 H 8.83902266276732 96.13709227206883 42.03127376599104 H 0.0 **** 0.06
20514 H 8.241470846804418 95.08511768901101 40.7242980883295 H 0.0 **** 0.06
20515 H 9.886713871848968 95.76001097891228 40.6407612589847 H 0.0 **** 0.06
20516 C 60.373242633459746 69.77150386815703 85.47510609688297 C 0.0 **** -0.24
20517 H 59.674347772716224 69.27160817741378 84.80468218564235 H 0.0 **** 0.06
20518 H 61.369429884617766 69.76408575824627 85.03292187066296 H 0.0 **** 0.06
20519 H 60.39601801181205 69.2474845107347 86.431401578584 H 0.0 **** 0.06
20520 H 60.05208685968419 70.80165547731502 85.63261056615741 H 0.0 **** 0.06
20521 C 33.052583701383085 69.27456470666309 100.84734342416544 C 0.0 **** -0.24
20522 H 33.008193029617644 68.60941561388569 99.98511891639265 H 0.0 **** 0.06
20523 H 34.082971310146334 69.3503024038761 101.19511656627091 H 0.0 **** 0.06
20524 H 32.42767457236694 68.87401316904254 101.64650367027863 H 0.0 **** 0.06
20525 H 32.69001912247759 70.2620062323935 100.56384377181487 H 0.0 **** 0.06
20526 C 78.05293236741801 64.87696537343689 104.60568951308429 C 0.0 **** -0.24
20527 H 78.19203859397606 65.30527667638114 103.61306226622159 H 0.0 **** 0.06
20528 H 78.6118820341845 63.943069360818214 104.67922578110151 H 0.0 **** 0.06
20529 H 76.99350253711643 64.68070399384843 104.77054966606681 H 0.0 **** 0.06
20530 H 78.41498402900356 65.57750381755218 105.35796301888575 H 0.0 **** 0.06
20531 C 64.50296823102809 65.19442586746663 85.8783541275046 C 0.0 **** -0.24
20532 H 64.51099713885117 65.81778916481926 84.9843028459953 H 0.0 **** 0.06
20533 H 63.54394183331576 65.30059811150005 86.38632936603378 H 0.0 **** 0.06
20534 H 65.30521681011129 65.50795395356062 86.54686617899844 H 0.0 **** 0.06
20535 H 64.6514505976294 64.15274375104599 85.59606128840227 H 0.0 **** 0.06
20536 C 53.97286812866719 94.40504265804472 88.96699230690894 C 0.0 **** -0.24
20537 H 54.239935009496776 93.34892598067225 89.00954620608661 H 0.0 **** 0.06
20538 H 53.307102461888576 94.57654118890792 88.12047747400152 H 0.0 **** 0.06
20539 H 54.87562891683689 95.00310852912443 88.84756421139093 H 0.0 **** 0.06
20540 H 53.4672219979102 94.68893382552636 89.88974131915052 H 0.0 **** 0.06
20541 C 44.335518366871725 15.224007395746582 74.18964202391663 C 0.0 **** -0.24
20542 H 44.91572298514615 15.154455520643126 75.11066764748517 H 0.0 **** 0.06
20543 H 44.8593186809955 15.862917572365802 73.47886712048964 H 0.0 **** 0.06
20544 H 43.355864188937005 15.648176619859328 74.40927834478666 H 0.0 **** 0.06
20545 H 44.21322605306966 14.227802023801132 73.76285226884585 H 0.0 **** 0.06
20546 C 38.73997180012542 14.993073362622397 6.150051610076275 C 0.0 **** -0.24
20547 H 39.57897664337236 14.323857784935797 6.341468347165204 H 0.0 **** 0.06
20548 H 39.10925085459226 16.011650915238477 6.023668006014475 H 0.0 **** 0.06
20549 H 38.04909500602408 14.959109366693724 6.993038398235086 H 0.0 **** 0.06
20550 H 38.22346751284146 14.678143997611983 5.244023073798843 H 0.0 **** 0.06
20551 C 40.158527771436795 97.44429822818665 114.90218852655445 C 0.0 **** -0.24
20552 H 39.42398609852721 97.22883978623142 115.67757236897396 H 0.0 **** 0.06
20553 H 40.93404422394204 96.67819360179803 114.9143096251056 H 0.0 **** 0.06
20554 H 40.608996212141896 98.4195295901495 115.08918582592861 H 0.0 **** 0.06
20555 H 39.6687317175244 97.45174300241686 113.9291174644486 H 0.0 **** 0.06
20556 C 77.4936090870354 77.43295286022669 103.74322627378982 C 0.0 **** -0.24
20557 H 76.47772967168908 77.72705710902395 104.00456627146744 H 0.0 **** 0.06
20558 H 77.46063542565292 76.61393802128254 103.02448263551378 H 0.0 **** 0.06
20559 H 78.01966815918797 77.10807235496421 104.64026217541323 H 0.0 **** 0.06
20560 H 78.01606786836868 78.28172269664324 103.30267489821978 H 0.0 **** 0.06
20561 C 97.67310788836724 72.24198286498111 88.11865653999627 C 0.0 **** -0.24
20562 H 96.65616056700131 71.86091772175115 88.0187488762947 H 0.0 **** 0.06
20563 H 98.31393749929188 71.4609263913903 88.52909925506975 H 0.0 **** 0.06
20564 H 97.67388176564265 73.10275576133435 88.78749837301496 H 0.0 **** 0.06
20565 H 98.04618805367102 72.54165064779747 87.14030473066225 H 0.0 **** 0.06
20566 C 64.38443040491791 14.226844775036284 37.95262078449991 C 0.0 **** -0.24
20567 H 63.8230814947429 14.99312906075562 37.41843192818641 H 0.0 **** 0.06
20568 H 64.13429569555029 13.245409492651675 37.54801176391578 H 0.0 **** 0.06
20569 H 64.1254535784472 14.26012928807802 39.011127817783574 H 0.0 **** 0.06
20570 H 65.45207992816307 14.408571537819284 37.833193861485995 H 0.0 **** 0.06
20571 C 3.620648248015968 24.26800697067 15.852630724146138 C 0.0 **** -0.24
20572 H 3.621936841108493 23.187612730817733 15.703400453232206 H 0.0 **** 0.06
20573 H 3.633506847006828 24.486922882313735 16.920644994919385 H 0.0 **** 0.06
20574 H 2.7233545248719793 24.695064071707662 15.404321461560954 H 0.0 **** 0.06
20575 H 4.503547835579397 24.700249153597213 15.38171886521397 H 0.0 **** 0.06
20576 C 55.623705275597985 77.71457789467408 15.206174014255776 C 0.0 **** -0.24
20577 H 56.64152369054341 77.36602094570893 15.38482385588376 H 0.0 **** 0.06
20578 H 55.27935448407388 78.28491426836038 16.069630437513805 H 0.0 **** 0.06
20579 H 54.968260578789824 76.8575504962287 15.0515802005445 H 0.0 **** 0.06
20580 H 55.60699810952062 78.34961929822146 14.320457779444514 H 0.0 **** 0.06
20581 C 114.58756780849653 11.003725463758002 18.25258333301231 C 0.0 **** -0.24
20582 H 115.02498177343945 10.187793603895301 17.677265867180836 H 0.0 **** 0.06
20583 H 115.13699679492134 11.124446576799443 19.186249853488775 H 0.0 **** 0.06
20584 H 113.54390513707733 10.776973016113686 18.47027696489637 H 0.0 **** 0.06
20585 H 114.64580992922725 11.926777460610595 17.674869828130397 H 0.0 **** 0.06
20586 C 22.9327218121272 18.72170482645388 54.87026555108116 C 0.0 **** -0.24
20587 H 22.492559009961184 18.011890441660952 54.1691569490618 H 0.0 **** 0.06
20588 H 23.99075058941696 18.849897990795167 54.641640124241235 H 0.0 **** 0.06
20589 H 22.823777776419888 18.342326606633375 55.88679021270627 H 0.0 **** 0.06
20590 H 22.422882273252384 19.68078241248042 54.7841566644131 H 0.0 **** 0.06
20591 C 89.34905432735991 7.635481969001802 69.30500788996864 C 0.0 **** -0.24
20592 H 88.98257634155362 8.661490365421855 69.34567303015561 H 0.0 **** 0.06
20593 H 88.74077603198711 7.060380100769407 68.60671401436966 H 0.0 **** 0.06
20594 H 89.28446582170119 7.188237916415318 70.29752797382707 H 0.0 **** 0.06
20595 H 90.38659483644417 7.632933100361981 68.97223903622694 H 0.0 **** 0.06
20596 C 82.97175314585195 102.89332702621454 22.516679677257017 C 0.0 **** -0.24
20597 H 83.94277080972347 102.54780148461472 22.162499301081596 H 0.0 **** 0.06
20598 H 82.33638039553705 103.12925784268202 21.662772125171266 H 0.0 **** 0.06
20599 H 83.10526343585894 103.7858582823907 23.12756174126639 H 0.0 **** 0.06
20600 H 82.50295696804994 102.11132294717677 23.113844409901667 H 0.0 **** 0.06
20601 C 90.01708237714388 9.815125397824275 65.72150736423703 C 0.0 **** -0.24
20602 H 91.03084770196381 9.760132331978241 65.32523274312268 H 0.0 **** 0.06
20603 H 89.31464005781197 9.439270436184188 64.9772198974423 H 0.0 **** 0.06
20604 H 89.77605672059178 10.851419394791193 65.95878855087426 H 0.0 **** 0.06
20605 H 89.94702237069862 9.209603587320643 66.6257567564644 H 0.0 **** 0.06
20606 C 77.39118906051769 17.434959214232563 13.149885923317978 C 0.0 **** -0.24
20607 H 76.7018964693776 17.096203463442052 12.375845689527853 H 0.0 **** 0.06
20608 H 78.4106516569878 17.408918273028135 12.765494419829828 H 0.0 **** 0.06
20609 H 77.31145025943064 16.781527841445453 14.018077187374622 H 0.0 **** 0.06
20610 H 77.13805368887569 18.455497494754482 13.438963987569345 H 0.0 **** 0.06
20611 C 39.39544942558507 99.06766478476695 106.83950553897685 C 0.0 **** -0.24
20612 H 40.30571536452959 99.39093623817075 107.34433961469017 H 0.0 **** 0.06
20613 H 38.575789175920875 99.73601381493614 107.10649563953007 H 0.0 **** 0.06
20614 H 39.15125991931188 98.05118295161196 107.1468995691306 H 0.0 **** 0.06
20615 H 39.5495434761267 99.0945697450019 105.7610380705093 H 0.0 **** 0.06
20616 C 61.05681911328147 69.0066441984732 27.280410074844497 C 0.0 **** -0.24
20617 H 60.05934902078844 69.41822083548132 27.130740529487554 H 0.0 **** 0.06
20618 H 61.08720276470485 68.46487824471993 28.226233263038665 H 0.0 **** 0.06
20619 H 61.78528920816077 69.81785469603705 27.303101067860666 H 0.0 **** 0.06
20620 H 61.29583279166034 68.32664609562624 26.463755367504945 H 0.0 **** 0.06
20621 C 107.09104798630676 49.027570566803234 45.16059404427081 C 0.0 **** -0.24
20622 H 108.15556150001919 49.21930769013534 45.301167560355196 H 0.0 **** 0.06
20623 H 106.65522345212045 48.69056885191057 46.10136756210497 H 0.0 **** 0.06
20624 H 106.9587248206416 48.25658616951468 44.40090025077103 H 0.0 **** 0.06
20625 H 106.59668587302158 49.94417214248011 44.83801281851774 H 0.0 **** 0.06
20626 C 10.010184158390288 92.53314973576849 47.97539120375433 C 0.0 **** -0.24
20627 H 10.063649301496582 91.50207612376389 47.62211679843291 H 0.0 **** 0.06
20628 H 9.760391373922175 92.54003007578095 49.03613205934724 H 0.0 **** 0.06
20629 H 9.242486983540843 93.06803025677976 47.41574321284922 H 0.0 **** 0.06
20630 H 10.974665845164523 93.01866834414133 47.82485299655826 H 0.0 **** 0.06
20631 C 4.714821101296952 23.01280261696138 40.105924383447174 C 0.0 **** -0.24
20632 H 3.626187850115109 23.016898261071123 40.153503736003 H 0.0 **** 0.06
20633 H 5.05811306650825 22.055434197560043 39.71159532578554 H 0.0 **** 0.06
20634 H 5.12296193030509 23.160820434655594 41.10548514999767 H 0.0 **** 0.06
20635 H 5.053118178125995 23.817639276872818 39.45232429220906 H 0.0 **** 0.06
20636 C 72.24232580429307 17.380257479100834 75.30633791999873 C 0.0 **** -0.24
20637 H 72.18439888664656 18.418227071037208 74.97740234571592 H 0.0 **** 0.06
20638 H 71.70865826099455 17.26870691653741 76.24996515879383 H 0.0 **** 0.06
20639 H 73.28689283849181 17.1009178885286 75.44321398405313 H 0.0 **** 0.06
20640 H 71.78902824186463 16.73550723582015 74.55290746420687 H 0.0 **** 0.06
20641 C 103.68515324807493 109.12589730627215 36.48959853805829 C 0.0 **** -0.24
20642 H 103.45991522544443 108.22635737903207 35.91644695652596 H 0.0 **** 0.06
20643 H 103.35126977204817 108.99336125449761 37.5194791511922 H 0.0 **** 0.06
20644 H 103.17056263619492 109.9785820091063 36.04668515852438 H 0.0 **** 0.06
20645 H 104.76092749573337 109.30467784511673 36.476395160968735 H 0.0 **** 0.06
20646 C 81.0154506166815 84.36157543298447 68.41754480573965 C 0.0 **** -0.24
20647 H 81.92224438237162 84.95536757588394 68.30652287169005 H 0.0 **** 0.06
20648 H 80.38553333053557 84.80122737574516 69.19070541870738 H 0.0 **** 0.06
20649 H 81.28030842233767 83.34286595763069 68.69927032038183 H 0.0 **** 0.06
20650 H 80.47321841681844 84.34699248906554 67.471505901039 H 0.0 **** 0.06
20651 C 29.3335876561367 106.55846644706841 39.82069896831945 C 0.0 **** -0.24
20652 H 28.72479711330803 107.14593056150889 40.50779644278572 H 0.0 **** 0.06
20653 H 30.287658291269324 106.32209551458158 40.29214248232182 H 0.0 **** 0.06
20654 H 29.510439439917832 107.13323559659008 38.9114037153841 H 0.0 **** 0.06
20655 H 28.81138216662862 105.63505167115358 39.57138689169264 H 0.0 **** 0.06
20656 C 45.76545806208199 41.83725917165702 96.95750437412059 C 0.0 **** -0.24
20657 H 45.35276712022258 41.43376064792176 96.03281788830805 H 0.0 **** 0.06
20658 H 46.85183931997685 41.74522844078389 96.93961232959057 H 0.0 **** 0.06
20659 H 45.36712546727986 41.28021652852176 97.80559081400236 H 0.0 **** 0.06
20660 H 45.4903463997548 42.88773953687026 97.0498597687355 H 0.0 **** 0.06
20661 C 99.49500404460599 70.55796904814758 28.448550066192865 C 0.0 **** -0.24
20662 H 99.52165772538882 69.51514006222632 28.133165812319078 H 0.0 **** 0.06
20663 H 100.49230347213944 70.99034763276407 28.36017784156512 H 0.0 **** 0.06
20664 H 99.16371989958435 70.61556448427794 29.485760551551905 H 0.0 **** 0.06
20665 H 98.80089838912482 71.11178994397551 27.81515144602119 H 0.0 **** 0.06
20666 C 70.30901478641826 12.273990061369297 15.4669367146183 C 0.0 **** -0.24
20667 H 70.3302603855876 12.611666176520824 16.502682523843276 H 0.0 **** 0.06
20668 H 70.49538117736378 11.200084680487432 15.43091122083328 H 0.0 **** 0.06
20669 H 71.0792785212843 12.795545295560647 14.898291908600726 H 0.0 **** 0.06
20670 H 69.3310319536732 12.48779768227746 15.035373436198086 H 0.0 **** 0.06
20671 C 116.04799960314786 67.28283963169903 90.2860528835692 C 0.0 **** -0.24
20672 H 115.21585759661518 66.60345481889198 90.47373876204324 H 0.0 **** 0.06
20673 H 115.99304593829318 68.12396489475543 90.97805752670212 H 0.0 **** 0.06
20674 H 115.99154209863173 67.65149928546185 89.26167180430662 H 0.0 **** 0.06
20675 H 116.98934882741246 66.75267960914144 90.43045146807896 H 0.0 **** 0.06
20676 C 31.297646980086483 30.18652505103384 55.95568747528346 C 0.0 **** -0.24
20677 H 31.5789731621299 29.135081926955678 56.01667860985241 H 0.0 **** 0.06
20678 H 31.09201162016666 30.447087297778722 54.91717680451762 H 0.0 **** 0.06
20679 H 32.11286504235187 30.80367464295 56.33188129771502 H 0.0 **** 0.06
20680 H 30.405418347823996 30.357946353416736 56.557973766131234 H 0.0 **** 0.06
20681 C 77.32823894303499 10.504487465827289 31.88830520224238 C 0.0 **** -0.24
20682 H 78.28618338098767 11.025061138693452 31.879112425848348 H 0.0 **** 0.06
20683 H 76.83649497906791 10.666796501420489 32.84790286132278 H 0.0 **** 0.06
20684 H 77.49360294671422 9.438070297872375 31.739577078888004 H 0.0 **** 0.06
20685 H 76.69866039708651 10.891030792114364 31.086688028974663 H 0.0 **** 0.06
20686 C 43.201633380954036 68.75361220216945 104.39587889245479 C 0.0 **** -0.24
20687 H 43.95927957811051 68.08398882281406 104.80048564045447 H 0.0 **** 0.06
20688 H 42.68706856875542 69.25729959398242 105.21482705423989 H 0.0 **** 0.06
20689 H 42.48204002019861 68.17873864704072 103.81273588219602 H 0.0 **** 0.06
20690 H 43.67755637125708 69.49604369540492 103.7553168376576 H 0.0 **** 0.06
20691 C 63.188853046579275 71.18829076238677 12.526909864084558 C 0.0 **** -0.24
20692 H 62.58573587242282 71.50757318263521 13.376775363757758 H 0.0 **** 0.06
20693 H 64.08659218246007 71.80346825728364 12.467076339824587 H 0.0 **** 0.06
20694 H 62.60991329646175 71.29850602431605 11.608998413981396 H 0.0 **** 0.06
20695 H 63.47093767134647 70.14281448804948 12.654179771966142 H 0.0 **** 0.06
20696 C 52.45912860801324 34.32231433090942 112.02567282444105 C 0.0 **** -0.24
20697 H 51.44007800420183 33.96601692768087 112.18110151480178 H 0.0 **** 0.06
20698 H 53.10678460873877 33.91700381590272 112.80358740966606 H 0.0 **** 0.06
20699 H 52.47439149469 35.41105107695847 112.06945949223247 H 0.0 **** 0.06
20700 H 52.81316901429266 33.99231943342818 111.04918539273858 H 0.0 **** 0.06
20701 C 74.71723734566015 41.76776953934865 79.7360434473556 C 0.0 **** -0.24
20702 H 73.80164670882289 42.157332184557475 80.18193327879038 H 0.0 **** 0.06
20703 H 75.56822197190431 42.034213531311394 80.36290446181573 H 0.0 **** 0.06
20704 H 74.84795750652731 42.19842176486043 78.74314623092232 H 0.0 **** 0.06
20705 H 74.64949064150355 40.68292748184038 79.65637511515746 H 0.0 **** 0.06
20706 C 16.98919057630809 106.48084528753304 106.66674922300734 C 0.0 **** -0.24
20707 H 16.575246986356277 106.66372869324397 107.65788406443261 H 0.0 **** 0.06
20708 H 17.018026819291634 107.41643570096471 106.10755153094584 H 0.0 **** 0.06
20709 H 16.364487184662906 105.76035577300044 106.13947751415242 H 0.0 **** 0.06
20710 H 17.999830287365867 106.08310933374486 106.76258496570449 H 0.0 **** 0.06
20711 C 51.09365951475604 17.72661899208532 11.316986872884943 C 0.0 **** -0.24
20712 H 50.38827772066924 17.54091021979491 10.507147549647119 H 0.0 **** 0.06
20713 H 52.0489906708322 18.047418745829646 10.900054095334092 H 0.0 **** 0.06
20714 H 51.237009530090546 16.8104458351915 11.890416486878173 H 0.0 **** 0.06
20715 H 50.70118361124193 18.506122457845265 11.969418426735903 H 0.0 **** 0.06
20716 C 110.79519889451032 82.09776334479886 88.09942480138716 C 0.0 **** -0.24
20717 H 111.56371687265624 81.32624592822583 88.13071194029436 H 0.0 **** 0.06
20718 H 110.10299538491597 81.8882684541455 87.28359137029074 H 0.0 **** 0.06
20719 H 111.26223608953839 83.06921702847416 87.94054149379139 H 0.0 **** 0.06
20720 H 110.25092442757617 82.10773910887494 89.04425960646006 H 0.0 **** 0.06
20721 C 111.22680880830407 70.11462464300286 58.88041963416333 C 0.0 **** -0.24
20722 H 111.4619879820122 70.30606313174769 59.92757580650937 H 0.0 **** 0.06
20723 H 111.66306320641061 69.16342845144462 58.577568522887475 H 0.0 **** 0.06
20724 H 111.63580262933306 70.91610598546936 58.2642964774214 H 0.0 **** 0.06
20725 H 110.1444217732654 70.07540278119447 58.753616717391935 H 0.0 **** 0.06
20726 C 54.19199384555956 2.505479292150829 50.952619136382225 C 0.0 **** -0.24
20727 H 54.24474672163204 3.03258272480279 50.000048894711576 H 0.0 **** 0.06
20728 H 55.11778586901963 1.953293979688155 51.11375096804797 H 0.0 **** 0.06
20729 H 53.35232352480609 1.8105806865281977 50.93688223682331 H 0.0 **** 0.06
20730 H 54.05274993141414 3.225620250820512 51.75887907838195 H 0.0 **** 0.06
20731 C 10.53856566030295 7.377701321016275 100.12790884046592 C 0.0 **** -0.24
20732 H 11.455317430672778 7.866122011995799 99.79718327321385 H 0.0 **** 0.06
20733 H 10.743768844802858 6.786508576936285 101.02098040593805 H 0.0 **** 0.06
20734 H 10.168851198566188 6.725868190220069 99.33689891420491 H 0.0 **** 0.06
20735 H 9.786833296773551 8.1335946189065 100.35628522243147 H 0.0 **** 0.06
20736 C 39.49331944353554 96.48869715224285 11.3263412944315 C 0.0 **** -0.24
20737 H 40.28739334222465 96.93199756549276 10.725459148092398 H 0.0 **** 0.06
20738 H 39.73014902635967 96.60644851347229 12.383574148276068 H 0.0 **** 0.06
20739 H 39.40718516527048 95.42810493390283 11.08830128459951 H 0.0 **** 0.06
20740 H 38.54927189944752 96.98855218495183 11.107413912103766 H 0.0 **** 0.06
20741 C 91.63678796571938 40.50718723906601 97.30052221010408 C 0.0 **** -0.24
20742 H 92.41797880641258 39.94602842953401 96.78866131936806 H 0.0 **** 0.06
20743 H 90.78182117695869 40.62891155857048 96.63447414799242 H 0.0 **** 0.06
20744 H 92.02030439923206 41.48843423945016 97.58198356731558 H 0.0 **** 0.06
20745 H 91.32835882140799 39.967082857192906 98.19488097736931 H 0.0 **** 0.06
20746 C 91.58482348842918 104.97385523137186 18.59795306651094 C 0.0 **** -0.24
20747 H 92.21660810910805 105.85864443463413 18.68461508862046 H 0.0 **** 0.06
20748 H 92.13350090053564 104.18622794716819 18.082585954344438 H 0.0 **** 0.06
20749 H 90.68737740799139 105.22415256711105 18.031699787097892 H 0.0 **** 0.06
20750 H 91.30201777028824 104.63074444632514 19.593129874418878 H 0.0 **** 0.06
20751 C 95.83979739421241 92.07683625473652 84.81524474787344 C 0.0 **** -0.24
20752 H 96.26463408885189 91.79565751705809 85.77865444401712 H 0.0 **** 0.06
20753 H 94.80375509803659 91.74169351470707 84.762883602399 H 0.0 **** 0.06
20754 H 96.41348337845383 91.61083232717996 84.01419063723918 H 0.0 **** 0.06
20755 H 95.87646730436182 93.16131412063038 84.70444702749745 H 0.0 **** 0.06
20756 C 20.902821294628804 66.84404073699312 6.583309178429374 C 0.0 **** -0.24
20757 H 20.12982529039547 66.24729740402205 6.098865632315494 H 0.0 **** 0.06
20758 H 21.451547093693982 66.22196901685425 7.290727556481016 H 0.0 **** 0.06
20759 H 20.44002183337666 67.67660935091078 7.113687495417011 H 0.0 **** 0.06
20760 H 21.589236672651154 67.23032187091695 5.829200542231746 H 0.0 **** 0.06
20761 C 65.21224326366692 79.83473445280549 95.66466895815546 C 0.0 **** -0.24
20762 H 65.8776167764758 79.83040739511904 96.52816496022822 H 0.0 **** 0.06
20763 H 64.30530819695343 80.38852104204395 95.90880663431932 H 0.0 **** 0.06
20764 H 64.95293542918634 78.81017429956117 95.4009459739014 H 0.0 **** 0.06
20765 H 65.71378608504659 80.31159172414317 94.82232702748374 H 0.0 **** 0.06
20766 C 70.28800588506226 26.5164899970072 55.200631689215186 C 0.0 **** -0.24
20767 H 69.3177830072575 26.758757373025333 54.76610655314951 H 0.0 **** 0.06
20768 H 71.07844493429326 26.821444574161262 54.51519478307446 H 0.0 **** 0.06
20769 H 70.34953649797865 25.44163759056235 55.37284461252489 H 0.0 **** 0.06
20770 H 70.40284101789678 27.042981223561583 56.148240711895255 H 0.0 **** 0.06
20771 C 80.80314094399114 107.48772430635285 47.79809040251421 C 0.0 **** -0.24
20772 H 79.99186259442155 107.50147127655214 48.52509271024921 H 0.0 **** 0.06
20773 H 81.59356300894544 108.16539200747616 48.12360310446708 H 0.0 **** 0.06
20774 H 80.42654556672738 107.80942015939752 46.827204901913326 H 0.0 **** 0.06
20775 H 81.2014773944874 106.47650915418612 47.71725146510222 H 0.0 **** 0.06
20776 C 107.86951106527104 87.6685786900162 58.69293375267981 C 0.0 **** -0.24
20777 H 107.25740818179747 88.01566551614155 59.5259162329821 H 0.0 **** 0.06
20778 H 108.8572787021483 88.12476667311552 58.75476058010682 H 0.0 **** 0.06
20779 H 107.39649587577699 87.95234434171283 57.752154967834855 H 0.0 **** 0.06
20780 H 107.96535603744672 86.58413262686548 58.738959807701406 H 0.0 **** 0.06
20781 C 58.716625022286685 54.579434469657286 83.08543184502827 C 0.0 **** -0.24
20782 H 59.78142194324119 54.35627269372225 83.15446313541003 H 0.0 **** 0.06
20783 H 58.56017333144619 55.37729754651036 82.35971611387276 H 0.0 **** 0.06
20784 H 58.34826154906251 54.895831082795326 84.06124970468062 H 0.0 **** 0.06
20785 H 58.17911243142387 53.686124211732846 82.76620151232964 H 0.0 **** 0.06
20786 C 2.604306389432878 14.270907898522012 33.47543715591502 C 0.0 **** -0.24
20787 H 3.427328188926367 14.233948734672424 32.76065593591333 H 0.0 **** 0.06
20788 H 1.9318365140169362 15.087017145896738 33.21254956552603 H 0.0 **** 0.06
20789 H 3.0012144711407984 14.434442365262584 34.47777166473299 H 0.0 **** 0.06
20790 H 2.0591567081208666 13.327673906111329 33.45017073920404 H 0.0 **** 0.06
20791 C 43.2177047310995 83.9167884938498 112.2748411316569 C 0.0 **** -0.24
20792 H 43.112903143101725 82.84123843497949 112.13047806841422 H 0.0 **** 0.06
20793 H 43.77193657712835 84.34303821542821 111.43808055967881 H 0.0 **** 0.06
20794 H 43.75509055526505 84.10791506148152 113.20327046632491 H 0.0 **** 0.06
20795 H 42.22905789760032 84.37364331811551 112.32658197480899 H 0.0 **** 0.06
20796 C 74.98365021572704 12.9195201629297 47.546002530049435 C 0.0 **** -0.24
20797 H 74.00317993306314 12.66983184763572 47.139565844829946 H 0.0 **** 0.06
20798 H 75.38036522577326 12.061198501135465 48.08860746474119 H 0.0 **** 0.06
20799 H 74.88967943617584 13.76723615201999 48.224346123451966 H 0.0 **** 0.06
20800 H 75.65935506418273 13.178889449179422 46.73124583522788 H 0.0 **** 0.06
20801 C 89.26214170141256 110.64342960386294 55.79857209115408 C 0.0 **** -0.24
20802 H 88.26879583301357 110.30980991396656 55.49764538560507 H 0.0 **** 0.06
20803 H 90.00160304376743 110.26185202890882 55.09422738424331 H 0.0 **** 0.06
20804 H 89.48430380573475 110.26840503581853 56.79844940058299 H 0.0 **** 0.06
20805 H 89.29308990395677 111.73308821663204 55.804255029440135 H 0.0 **** 0.06
20806 C 108.54973183586577 78.4224667628151 102.60635907871941 C 0.0 **** -0.24
20807 H 109.04406518520011 79.06251320276473 101.87572233905249 H 0.0 **** 0.06
20808 H 109.12026259179572 78.42561268824582 103.53575231827202 H 0.0 **** 0.06
20809 H 108.49107553291901 77.40568346865743 102.21792486287345 H 0.0 **** 0.06
20810 H 107.54408639802011 78.79765697975625 102.79639203786195 H 0.0 **** 0.06
20811 C 71.24144966492895 15.722474648753629 54.812056704690654 C 0.0 **** -0.24
20812 H 70.26749189549813 15.238663036915128 54.883271392706 H 0.0 **** 0.06
20813 H 72.02285120335426 14.96349027205093 54.78276025098726 H 0.0 **** 0.06
20814 H 71.39126737211777 16.36592060176107 55.67992248682537 H 0.0 **** 0.06
20815 H 71.28388017777186 16.323550329594678 53.903661056985534 H 0.0 **** 0.06
20816 C 10.809092204363832 69.57190620513174 59.040160131511584 C 0.0 **** -0.24
20817 H 10.521456530873415 68.5551354679695 58.77313590316146 H 0.0 **** 0.06
20818 H 11.426089110840575 69.99541177464928 58.247747482074146 H 0.0 **** 0.06
20819 H 11.374465877958205 69.55625121088184 59.97246080844258 H 0.0 **** 0.06
20820 H 9.913830993262618 70.17989587480136 59.16926037870678 H 0.0 **** 0.06
20821 C 76.03735859052284 63.25610058383146 35.260110702389596 C 0.0 **** -0.24
20822 H 75.45419205095595 64.0946759861881 35.640823264043235 H 0.0 **** 0.06
20823 H 75.542191397935 62.32024754268105 35.52160559110985 H 0.0 **** 0.06
20824 H 77.03390543586616 63.27626573729598 35.70153763000687 H 0.0 **** 0.06
20825 H 76.11873969957901 63.333040207151235 34.17557881607604 H 0.0 **** 0.06
20826 C 2.466730292441964 40.63861881131052 50.43178267110247 C 0.0 **** -0.24
20827 H 3.275602768757521 40.41426165106361 51.12715893634268 H 0.0 **** 0.06
20828 H 2.3788024485715233 39.830481943500814 49.705261168175014 H 0.0 **** 0.06
20829 H 2.682787921722804 41.57180082848711 49.91230279050771 H 0.0 **** 0.06
20830 H 1.531391614230623 40.73683759972948 50.98221391638356 H 0.0 **** 0.06
20831 C 103.03153970491917 59.2398138969711 64.19217120404883 C 0.0 **** -0.24
20832 H 102.40154090801346 58.41613457085322 63.85757024388203 H 0.0 **** 0.06
20833 H 102.40645912457987 60.10113141329006 64.43127257550267 H 0.0 **** 0.06
20834 H 103.73118517211756 59.50693346826327 63.399783447421974 H 0.0 **** 0.06
20835 H 103.587040482406 58.93600206895377 65.07974106449893 H 0.0 **** 0.06
20836 C 17.538171568032936 26.71600816085504 89.27969487081486 C 0.0 **** -0.24
20837 H 18.014049883104917 26.8195482225741 90.2545498428484 H 0.0 **** 0.06
20838 H 16.635876502167747 27.32792535792464 89.2503179908067 H 0.0 **** 0.06
20839 H 17.275637406927075 25.672260717941242 89.11263516012275 H 0.0 **** 0.06
20840 H 18.226640031984005 27.0470647752756 88.50233224979917 H 0.0 **** 0.06
20841 C 55.23771761626119 105.60748406300849 15.123080407228688 C 0.0 **** -0.24
20842 H 54.28381824756215 105.50161724349769 14.606539830785646 H 0.0 **** 0.06
20843 H 55.685365425474345 104.62352357712365 15.264244103429522 H 0.0 **** 0.06
20844 H 55.0742105495988 106.07512846468873 16.094322990157394 H 0.0 **** 0.06
20845 H 55.90552463179466 106.22966442173004 14.528306262960957 H 0.0 **** 0.06
20846 C 23.22025847199265 43.08859016674941 4.595026847674745 C 0.0 **** -0.24
20847 H 22.84644161674845 44.0103884512684 5.040748563128091 H 0.0 **** 0.06
20848 H 22.48468195691146 42.702760232009894 3.889408394353751 H 0.0 **** 0.06
20849 H 23.395049478375995 42.35142387614411 5.377780861526844 H 0.0 **** 0.06
20850 H 24.154624854969768 43.2919089451612 4.070966779430847 H 0.0 **** 0.06
20851 C 9.437149371032518 64.89173633563269 50.77746022679142 C 0.0 **** -0.24
20852 H 10.020958248653528 65.73869752766552 50.415949586289116 H 0.0 **** 0.06
20853 H 9.248515771721287 64.20306578193197 49.95441882486273 H 0.0 **** 0.06
20854 H 8.488988510362532 65.24863377996166 51.17863115862633 H 0.0 **** 0.06
20855 H 9.992492616055188 64.37676222836794 51.56238927333533 H 0.0 **** 0.06
20856 C 21.053349676646604 88.14504169165389 95.02318795468443 C 0.0 **** -0.24
20857 H 20.3261433259849 88.64154287507449 94.38078585391008 H 0.0 **** 0.06
20858 H 20.893270590857355 87.06727253102315 94.98716974320052 H 0.0 **** 0.06
20859 H 20.933044759893733 88.49699560609088 96.04767715617595 H 0.0 **** 0.06
20860 H 22.060712696188006 88.37438234211606 94.67572345497524 H 0.0 **** 0.06
20861 C 49.205191372546324 65.19784210776771 97.47777987768956 C 0.0 **** -0.24
20862 H 48.6614355837857 64.9336965584873 96.57104964919691 H 0.0 **** 0.06
20863 H 48.85152104423716 64.58319179906843 98.30552818413634 H 0.0 **** 0.06
20864 H 49.036687989393926 66.24997713558358 97.70893891342342 H 0.0 **** 0.06
20865 H 50.27106367113615 65.02536556539914 97.32510011116426 H 0.0 **** 0.06
20866 C 83.58168635115933 1.6211874722805248 69.79913119910162 C 0.0 **** -0.24
20867 H 83.79791153145007 0.5846221031457901 69.54234565144827 H 0.0 **** 0.06
20868 H 83.16442455469061 1.6676802771761032 70.80559632202812 H 0.0 **** 0.06
20869 H 82.86401419504065 2.029946186592582 69.08882290531892 H 0.0 **** 0.06
20870 H 84.502326631605 2.20377953725756 69.76055728255699 H 0.0 **** 0.06
20871 C 64.12131612984422 16.24667329920078 51.65519575829953 C 0.0 **** -0.24
20872 H 64.68477968574086 16.2369188588423 52.58900394167887 H 0.0 **** 0.06
20873 H 64.03723839790035 15.229517560266657 51.271138255731415 H 0.0 **** 0.06
20874 H 64.63931946065884 16.869968597613422 50.925664717192205 H 0.0 **** 0.06
20875 H 63.12555708355205 16.650397926792323 51.83650287734119 H 0.0 **** 0.06
20876 C 37.66688810294724 17.624284199373363 107.9494615692544 C 0.0 **** -0.24
20877 H 38.701701891783046 17.93743607311447 108.09263407750623 H 0.0 **** 0.06
20878 H 37.5227423518875 17.305421035783354 106.91758454193015 H 0.0 **** 0.06
20879 H 37.0019233905131 18.459237268653 108.16958482975696 H 0.0 **** 0.06
20880 H 37.442718576606694 16.795326576623467 108.62144393474735 H 0.0 **** 0.06
20881 C 59.568245991036065 79.5494749130776 112.2445777160545 C 0.0 **** -0.24
20882 H 60.03167857009754 78.73832253070219 112.80735040621191 H 0.0 **** 0.06
20883 H 59.54209890516046 79.28811228996872 111.18710912361267 H 0.0 **** 0.06
20884 H 60.14890498407976 80.46201894223347 112.3801671868001 H 0.0 **** 0.06
20885 H 58.552645650875434 79.70727155783283 112.60628765451058 H 0.0 **** 0.06
20886 C 106.58672691933236 17.491795739905115 65.71814382820804 C 0.0 **** -0.24
20887 H 107.45175521435385 16.968332032421046 66.12501696009144 H 0.0 **** 0.06
20888 H 106.8162310016397 18.552220456666063 65.61995428311815 H 0.0 **** 0.06
20889 H 105.73671810795759 17.363570941088426 66.38902790267036 H 0.0 **** 0.06
20890 H 106.34133997386832 17.080771293700565 64.73843868495516 H 0.0 **** 0.06
20891 C 73.6978672829701 27.520825009124735 12.999235563593192 C 0.0 **** -0.24
20892 H 72.78029143174754 28.055042835406496 12.752302680694179 H 0.0 **** 0.06
20893 H 73.584417676057 26.46677653306176 12.744296340671617 H 0.0 **** 0.06
20894 H 73.89906734373832 27.61775933581805 14.065985872496036 H 0.0 **** 0.06
20895 H 74.5286248273587 27.944280944274453 12.433452898034997 H 0.0 **** 0.06
20896 C 100.91725267780654 4.322515981285122 104.51986952821002 C 0.0 **** -0.24
20897 H 101.28497419337808 4.159705839328836 105.53247885661571 H 0.0 **** 0.06
20898 H 101.75427679291906 4.561414945280362 103.86365242035913 H 0.0 **** 0.06
20899 H 100.20725412512684 5.15008107331532 104.52016754601675 H 0.0 **** 0.06
20900 H 100.42213256999455 3.4189018108124145 104.1641062889095 H 0.0 **** 0.06
20901 C 21.812434949640448 72.72706491787918 37.88715022854416 C 0.0 **** -0.24
20902 H 21.178152417492754 72.5521975028006 37.018172083359104 H 0.0 **** 0.06
20903 H 22.850337360292315 72.81780312905292 37.565423357761574 H 0.0 **** 0.06
20904 H 21.71770035956567 71.89084543074807 38.57992024511702 H 0.0 **** 0.06
20905 H 21.503624277500705 73.64692073822303 38.38290536529644 H 0.0 **** 0.06
20906 C 113.6518753246848 10.30936634497376 83.68494734391356 C 0.0 **** -0.24
20907 H 114.67739699202536 9.989833324600799 83.87140632254756 H 0.0 **** 0.06
20908 H 112.97556578933742 9.468208054931651 83.84227566670779 H 0.0 **** 0.06
20909 H 113.56200823379315 10.662048669655292 82.65756472688929 H 0.0 **** 0.06
20910 H 113.39287478867072 11.116399612176568 84.37076293829699 H 0.0 **** 0.06
20911 C 8.151968001303032 37.52079039726149 97.3662697769143 C 0.0 **** -0.24
20912 H 7.346643872319831 36.8544398961705 97.67681780046024 H 0.0 **** 0.06
20913 H 7.741213904873106 38.327383506949964 96.75932532379485 H 0.0 **** 0.06
20914 H 8.882011824344104 36.960754386152125 96.78201757160173 H 0.0 **** 0.06
20915 H 8.635972400413294 37.93983769308671 98.24806852478102 H 0.0 **** 0.06
20916 C 109.7371026871597 84.32458669188196 30.938584659244178 C 0.0 **** -0.24
20917 H 110.60606583937913 84.21418274548523 31.588492394804483 H 0.0 **** 0.06
20918 H 109.70614027246495 85.3400944194695 30.54364750672414 H 0.0 **** 0.06
20919 H 108.8298439268286 84.12955709821193 31.51059425622494 H 0.0 **** 0.06
20920 H 109.80689891198958 83.61452854869532 30.114720672680143 H 0.0 **** 0.06
20921 C 58.52020113937192 89.5348097303353 38.34645809296643 C 0.0 **** -0.24
20922 H 59.14128176613559 90.04605457121491 39.08202898508523 H 0.0 **** 0.06
20923 H 57.85610684300974 88.83509335975756 38.85440569112134 H 0.0 **** 0.06
20924 H 59.15758661939236 88.99062874341908 37.649167050461585 H 0.0 **** 0.06
20925 H 57.92706411831517 90.26854221498505 37.7996746430249 H 0.0 **** 0.06
20926 C 55.55556358260122 22.893303091378257 77.54515682281038 C 0.0 **** -0.24
20927 H 56.48322495344917 22.468526556068383 77.16223618704521 H 0.0 **** 0.06
20928 H 54.788268277245606 22.118271543586246 77.57728338094842 H 0.0 **** 0.06
20929 H 55.228570342198566 23.701052180741215 76.8903295179013 H 0.0 **** 0.06
20930 H 55.72066764893026 23.28333415136936 78.54952597159684 H 0.0 **** 0.06
20931 C 6.606638570348041 76.50592515455943 45.11257600561157 C 0.0 **** -0.24
20932 H 5.918908550750524 76.61788661720834 45.95092022456197 H 0.0 **** 0.06
20933 H 7.227492016085661 77.39936799836798 45.031687358483055 H 0.0 **** 0.06
20934 H 6.038271567627353 76.37281294342222 44.191745897108376 H 0.0 **** 0.06
20935 H 7.241841362334217 75.63552542443489 45.277141164328555 H 0.0 **** 0.06
20936 C 114.8204361164581 74.35039802405637 11.008238563482 C 0.0 **** -0.24
20937 H 115.48034383705944 74.92785236752334 10.35984723196352 H 0.0 **** 0.06
20938 H 115.21925280879394 73.34256644278656 11.126825063189798 H 0.0 **** 0.06
20939 H 113.82746984661048 74.29992346410606 10.562543356957587 H 0.0 **** 0.06
20940 H 114.75718454974287 74.83377404277195 11.983150266826176 H 0.0 **** 0.06
20941 C 66.90144331477279 26.9231017025216 114.25851910491014 C 0.0 **** -0.24
20942 H 67.3354615899932 27.73685276292811 114.8384011960606 H 0.0 **** 0.06
20943 H 66.22500340622818 27.332230077387088 113.5069466946473 H 0.0 **** 0.06
20944 H 66.3489582215349 26.258389077259253 114.9226390601163 H 0.0 **** 0.06
20945 H 67.69712582492633 26.364300856625242 113.76509133334798 H 0.0 **** 0.06
20946 C 44.57334583082117 68.99211815694957 15.200742417481507 C 0.0 **** -0.24
20947 H 43.57467100689424 68.58364759312573 15.044024843523147 H 0.0 **** 0.06
20948 H 45.17342561489142 68.837108851387 14.304653540772591 H 0.0 **** 0.06
20949 H 45.04323775174332 68.48846761004316 16.045173374435763 H 0.0 **** 0.06
20950 H 44.49842622038897 70.05991683542098 15.409773708645162 H 0.0 **** 0.06
20951 C 42.133626926052955 86.40033542591473 54.31504660738845 C 0.0 **** -0.24
20952 H 41.523876503633346 87.23856612664056 53.97648828910105 H 0.0 **** 0.06
20953 H 42.759147622217725 86.72013668373833 55.149342158289656 H 0.0 **** 0.06
20954 H 42.76689501961314 86.05875750687142 53.49676916999555 H 0.0 **** 0.06
20955 H 41.4851008241704 85.58580635233588 54.637407027532404 H 0.0 **** 0.06
20956 C 101.18801253657153 41.20328737678164 104.53660466393228 C 0.0 **** -0.24
20957 H 100.6191622292487 41.689354626504034 103.74450563367867 H 0.0 **** 0.06
20958 H 101.73696009199242 40.358115914396805 104.12292886161819 H 0.0 **** 0.06
20959 H 100.50499830627024 40.85060712095899 105.30951744962428 H 0.0 **** 0.06
20960 H 101.88951492202892 41.91670203657628 104.97005124702619 H 0.0 **** 0.06
20961 C 113.70028006070747 68.14981671411763 50.22440857883757 C 0.0 **** -0.24
20962 H 112.93138422309222 68.17492848080758 50.996998115098194 H 0.0 **** 0.06
20963 H 114.30848456762618 67.25307845945505 50.346955720074405 H 0.0 **** 0.06
20964 H 114.33148632253592 69.03326225706917 50.31181854464373 H 0.0 **** 0.06
20965 H 113.2267668984185 68.13699594381492 49.241773862623546 H 0.0 **** 0.06
20966 C 101.71305559597127 33.213116637852 62.327114397912034 C 0.0 **** -0.24
20967 H 102.41086965488014 33.83336874996187 62.89020485085626 H 0.0 **** 0.06
20968 H 100.71235566770042 33.6384358530212 62.39480570471574 H 0.0 **** 0.06
20969 H 101.70860213823735 32.20475966110131 62.740062693202454 H 0.0 **** 0.06
20970 H 102.02266539405892 33.17602595458669 61.282473290634194 H 0.0 **** 0.06
20971 C 67.8119414706239 47.89114682636952 31.475390691867425 C 0.0 **** -0.24
20972 H 66.78872932189245 48.211130003306124 31.66974493997084 H 0.0 **** 0.06
20973 H 68.13938609520636 48.28409458991683 30.51277028499773 H 0.0 **** 0.06
20974 H 67.85484968053336 46.801651416046894 31.456242170825256 H 0.0 **** 0.06
20975 H 68.46553144773202 48.26619704074518 32.26238903489525 H 0.0 **** 0.06
20976 C 97.68797402203148 30.84397732403326 25.39329065828037 C 0.0 **** -0.24
20977 H 98.61817152931326 31.194822875039335 25.839418353789902 H 0.0 **** 0.06
20978 H 97.68623154157032 31.07763395679379 24.328610185389614 H 0.0 **** 0.06
20979 H 96.84509619265859 31.338388120787783 25.875551849794256 H 0.0 **** 0.06
20980 H 97.60367240084639 29.76657957885098 25.529860091706148 H 0.0 **** 0.06
20981 C 48.9710098984109 49.348348906030566 28.079238759624047 C 0.0 **** -0.24
20982 H 48.50485865189739 50.06718841926278 27.404868108179357 H 0.0 **** 0.06
20983 H 49.24953006072644 48.45432020342096 27.520943864806497 H 0.0 **** 0.06
20984 H 48.26753435357881 49.081380505558485 28.867665025494546 H 0.0 **** 0.06
20985 H 49.86286922010237 49.792704103860245 28.522700659012855 H 0.0 **** 0.06
20986 C 21.940835319390743 18.592991771788633 87.37833822291867 C 0.0 **** -0.24
20987 H 21.003951495618367 18.553776425061187 86.82243550205737 H 0.0 **** 0.06
20988 H 22.48644541963796 17.660780829637417 87.23490776809814 H 0.0 **** 0.06
20989 H 21.728219366987474 18.731945257275925 88.43846669031603 H 0.0 **** 0.06
20990 H 22.54306444030493 19.42669019686258 87.01668229261054 H 0.0 **** 0.06
20991 C 44.814206120189 116.73655069932695 64.00684392385466 C 0.0 **** -0.24
20992 H 45.1411062695463 117.2078702266751 63.07989992974 H 0.0 **** 0.06
20993 H 45.67876487490618 116.55737653746318 64.64701641556647 H 0.0 **** 0.06
20994 H 44.32740914676593 115.78831515242247 63.779118184258074 H 0.0 **** 0.06
20995 H 44.111744977243006 117.39251643671503 64.52027280474516 H 0.0 **** 0.06
20996 C 42.67624913634535 103.85514405472631 46.47714508228006 C 0.0 **** -0.24
20997 H 43.19400197358456 103.07683624302737 45.917235384015584 H 0.0 **** 0.06
20998 H 43.39980045359326 104.58512382514539 46.83953709302092 H 0.0 **** 0.06
20999 H 42.15609005380213 103.40705478578775 47.32412532840226 H 0.0 **** 0.06
21000 H 41.954046615732466 104.35032239848982 45.82827153861078 H 0.0 **** 0.06
21001 C 6.881599787061427 95.38566763175172 106.47236729922128 C 0.0 **** -0.24
21002 H 6.231676935663296 94.68639652567879 105.94505785490165 H 0.0 **** 0.06
21003 H 6.302090898902048 96.25485088952274 106.78403683300056 H 0.0 **** 0.06
21004 H 7.686287548360017 95.70367819838356 105.80966613312066 H 0.0 **** 0.06
21005 H 7.304348668926469 94.89656081115254 107.34992234755879 H 0.0 **** 0.06
21006 C 52.046708346436205 14.70452443932112 105.56800751194109 C 0.0 **** -0.24
21007 H 51.719697486675834 14.321156636412638 106.53439613657355 H 0.0 **** 0.06
21008 H 53.09285092825395 15.005855498989945 105.63288688442515 H 0.0 **** 0.06
21009 H 51.437216096695 15.565924082598315 105.29322601847548 H 0.0 **** 0.06
21010 H 51.93798566136733 13.927186749106852 104.81254978164387 H 0.0 **** 0.06
21011 C 85.88270503850566 52.34839926161919 35.62945931252392 C 0.0 **** -0.24
21012 H 86.7204660419041 52.06305498317431 34.99398700750709 H 0.0 **** 0.06
21013 H 86.05073918356968 51.9784312170018 36.641005728167215 H 0.0 **** 0.06
21014 H 84.96305795113838 51.91727514214699 35.232377126206984 H 0.0 **** 0.06
21015 H 85.79454553650078 53.43460527836908 35.649518020174526 H 0.0 **** 0.06
21016 C 6.169527657314731 32.338324824130666 42.34107669604475 C 0.0 **** -0.24
21017 H 5.186502669333976 31.87229135392846 42.27125076776687 H 0.0 **** 0.06
21018 H 6.552635507729491 32.22594509502298 43.356015717834964 H 0.0 **** 0.06
21019 H 6.087725517453961 33.39803902954162 42.09968040433432 H 0.0 **** 0.06
21020 H 6.850715389986547 31.856997089281265 41.63975093879432 H 0.0 **** 0.06
21021 C 7.489008735696643 69.19001661839104 78.60241014470455 C 0.0 **** -0.24
21022 H 6.742075521265775 69.83944295851896 79.05907541957146 H 0.0 **** 0.06
21023 H 8.311975663694994 69.03618541251595 79.3012401887251 H 0.0 **** 0.06
21024 H 7.865742482108232 69.65490563584311 77.69265813920043 H 0.0 **** 0.06
21025 H 7.034766982208737 68.22973314245317 78.35979523099007 H 0.0 **** 0.06
21026 C 54.97264303606417 77.96248395282683 77.19832734526582 C 0.0 **** -0.24
21027 H 54.397732020861184 77.19963551502386 77.722384109736 H 0.0 **** 0.06
21028 H 54.306703253704825 78.54538086041731 76.56157747203318 H 0.0 **** 0.06
21029 H 55.736861156146205 77.4849173224799 76.58436985619383 H 0.0 **** 0.06
21030 H 55.44885381559524 78.62090849221002 77.92495475692957 H 0.0 **** 0.06
21031 C 115.3393966763372 23.055775494889446 57.97229250811148 C 0.0 **** -0.24
21032 H 116.11429958070538 22.960025999725744 57.21214025246272 H 0.0 **** 0.06
21033 H 115.7930534419393 22.989364488172725 58.96239110029333 H 0.0 **** 0.06
21034 H 114.61145461024813 22.2533345813341 57.85223876598653 H 0.0 **** 0.06
21035 H 114.8412520532123 24.01846623697955 57.86445770529792 H 0.0 **** 0.06
21036 C 43.65795513170602 81.77745630932685 65.39710142077533 C 0.0 **** -0.24
21037 H 43.344879516665685 81.99994977645713 64.37721992913796 H 0.0 **** 0.06
21038 H 43.35883047094637 82.59365058304004 66.0552764378827 H 0.0 **** 0.06
21039 H 44.74226731869089 81.66401267062389 65.42734492224443 H 0.0 **** 0.06
21040 H 43.18717057724052 80.85246376500533 65.72814611294521 H 0.0 **** 0.06
21041 C 61.03466926455108 56.20770400710495 47.48640059219332 C 0.0 **** -0.24
21042 H 61.01147072810465 56.39353520583137 46.41229789813008 H 0.0 **** 0.06
21043 H 60.97177695800092 55.13495016544425 47.670136114616156 H 0.0 **** 0.06
21044 H 60.19186400644394 56.7090900418319 47.96072772051048 H 0.0 **** 0.06
21045 H 61.96643966866332 56.59298247941504 47.90027903825495 H 0.0 **** 0.06
21046 C 96.70408277669745 103.11823087572151 74.64224195337829 C 0.0 **** -0.24
21047 H 97.15113485548173 102.12483074666176 74.61607812330237 H 0.0 **** 0.06
21048 H 96.8549236934486 103.55871817208072 75.62801472114518 H 0.0 **** 0.06
21049 H 95.63552219295298 103.04014030089269 74.43859721108845 H 0.0 **** 0.06
21050 H 97.17276334289107 103.74795657978984 73.8869254968713 H 0.0 **** 0.06
21051 C 68.09747936451282 74.84170538887258 1.9658374882312728 C 0.0 **** -0.24
21052 H 68.66937325276294 75.76939961345425 1.9337313081371974 H 0.0 **** 0.06
21053 H 67.20923301184868 74.94074184210086 1.3425268779019746 H 0.0 **** 0.06
21054 H 67.79963822711053 74.63431871025756 2.993739915147188 H 0.0 **** 0.06
21055 H 68.71327912131372 74.02295721867773 1.5936076409447537 H 0.0 **** 0.06
21056 C 75.40932323816665 115.58770499193096 2.658472770897502 C 0.0 **** -0.24
21057 H 75.06098139737492 114.55465340441359 2.6471866108006257 H 0.0 **** 0.06
21058 H 74.71178708509899 116.21143133425748 2.0988909928287693 H 0.0 **** 0.06
21059 H 76.39599959027959 115.6438592644706 2.199866866764566 H 0.0 **** 0.06
21060 H 75.46652815575732 115.94093849867896 3.6878495857111506 H 0.0 **** 0.06
21061 C 16.510311036339544 36.095237028151615 99.24716747792334 C 0.0 **** -0.24
21062 H 17.20101411049393 35.31111686145812 99.55612176285274 H 0.0 **** 0.06
21063 H 16.889893021243836 36.57805400971739 98.34626776891903 H 0.0 **** 0.06
21064 H 16.41730364970266 36.83226373817689 100.04402326576215 H 0.0 **** 0.06
21065 H 15.533320761987738 35.658255113164415 99.04017523879583 H 0.0 **** 0.06
21066 C 7.830406266536244 28.162337035096954 29.847272156709835 C 0.0 **** -0.24
21067 H 7.899211484977627 29.24076283936739 29.992388083038293 H 0.0 **** 0.06
21068 H 7.529411807989561 27.95365154024998 28.82072666030882 H 0.0 **** 0.06
21069 H 7.091011907252465 27.75021196171093 30.533630549763586 H 0.0 **** 0.06
21070 H 8.800659421291755 27.707034406907496 30.04140406464188 H 0.0 **** 0.06
21071 C 6.2203117467899744 78.51389242781104 9.190654152191229 C 0.0 **** -0.24
21072 H 5.137140711992345 78.5833514959368 9.292275657853281 H 0.0 **** 0.06
21073 H 6.524039742963652 78.9411216418097 8.234512154664827 H 0.0 **** 0.06
21074 H 6.5230438957145935 77.46772661296211 9.234074111689694 H 0.0 **** 0.06
21075 H 6.697030854621488 79.06357925442379 10.002732532490313 H 0.0 **** 0.06
21076 C 63.7310438766309 3.465640691151492 49.39550571329178 C 0.0 **** -0.24
21077 H 64.45296576765224 2.956001621688472 50.033952885371235 H 0.0 **** 0.06
21078 H 62.97835662760679 2.7519642709596326 49.05804173956429 H 0.0 **** 0.06
21079 H 64.2441508541666 3.889648376292314 48.53255052469112 H 0.0 **** 0.06
21080 H 63.24842966999608 4.26389028777632 49.95942864756452 H 0.0 **** 0.06
21081 C 12.773331711955496 17.601018567273684 15.306814939522976 C 0.0 **** -0.24
21082 H 13.43254045218648 18.276976519504444 15.852220016165049 H 0.0 **** 0.06
21083 H 12.08532402313584 17.122859283755076 16.003360006708764 H 0.0 **** 0.06
21084 H 13.369853310053998 16.8395650766804 14.80381139836362 H 0.0 **** 0.06
21085 H 12.207356294031577 18.16587854196092 14.565748122018938 H 0.0 **** 0.06
21086 C 90.20674777862882 3.4883416092992547 114.33662508037929 C 0.0 **** -0.24
21087 H 90.97160437192974 3.4186418920315873 113.56322524778315 H 0.0 **** 0.06
21088 H 90.24705194331469 2.6017666581630863 114.96955509513859 H 0.0 **** 0.06
21089 H 89.22401841745088 3.5575746356647073 113.86970669056655 H 0.0 **** 0.06
21090 H 90.38352170763548 4.376319907529762 114.94331237133105 H 0.0 **** 0.06
21091 C 116.35764323409747 80.4319828597825 83.71531014543146 C 0.0 **** -0.24
21092 H 115.35991945676574 80.21817080953659 84.096032513295 H 0.0 **** 0.06
21093 H 117.05533101533638 79.67738077199508 84.07826662254482 H 0.0 **** 0.06
21094 H 116.67567540792209 81.41642350084737 84.06118039553104 H 0.0 **** 0.06
21095 H 116.34120196909495 80.41847147036117 82.62525412592154 H 0.0 **** 0.06
21096 C 4.563007179642796 103.13982406586803 30.720093424846368 C 0.0 **** -0.24
21097 H 4.120800824471829 103.61918119085686 31.59345546362278 H 0.0 **** 0.06
21098 H 4.141580406050892 103.5769727744651 29.814204624918595 H 0.0 **** 0.06
21099 H 4.346479701864638 102.07222536379888 30.742870032359157 H 0.0 **** 0.06
21100 H 5.642042551016331 103.29223082759495 30.729931353839397 H 0.0 **** 0.06
21101 C 24.340952333699335 68.3734343974063 74.33551538029502 C 0.0 **** -0.24
21102 H 23.394942948383648 67.90108708600485 74.07254737259214 H 0.0 **** 0.06
21103 H 24.463546937022187 69.28713299203048 73.75322468387651 H 0.0 **** 0.06
21104 H 25.16131212488166 67.68973663021006 74.1163963228008 H 0.0 **** 0.06
21105 H 24.343439585462583 68.61647792411793 75.39761451247688 H 0.0 **** 0.06
21106 C 89.07861699027734 18.9916527530425 82.02972443170347 C 0.0 **** -0.24
21107 H 88.80624547998397 19.750852301553152 82.76311913489741 H 0.0 **** 0.06
21108 H 90.05440928880523 19.229849797209113 81.6065252847792 H 0.0 **** 0.06
21109 H 88.33186451576191 18.97086353706962 81.23560381730897 H 0.0 **** 0.06
21110 H 89.12055921588077 18.016595585988938 82.51446590841823 H 0.0 **** 0.06
21111 C 67.80799358256465 32.26447352618368 113.327609761186 C 0.0 **** -0.24
21112 H 68.44538568795352 32.64311351009263 114.1271327918946 H 0.0 **** 0.06
21113 H 67.82030448919997 31.17452007682931 113.33823493929322 H 0.0 **** 0.06
21114 H 68.17911878256945 32.62307138159815 112.36782041159412 H 0.0 **** 0.06
21115 H 66.7887715949089 32.618156862176875 113.47846903166541 H 0.0 **** 0.06
21116 C 78.9815357583424 13.746002953970162 76.33000450478465 C 0.0 **** -0.24
21117 H 78.13890609410333 14.090578875140551 75.7295432496467 H 0.0 **** 0.06
21118 H 79.21892627943464 12.71492726090733 76.0646448911753 H 0.0 **** 0.06
21119 H 78.71954684574453 13.798965337762809 77.3864242716881 H 0.0 **** 0.06
21120 H 79.84726851527293 14.37979299741113 76.13748191355643 H 0.0 **** 0.06
21121 C 88.9834788663857 103.05237564045305 0.28952183096009776 C 0.0 **** -0.24
21122 H 89.22518160261342 102.44473459630223 1.1617185575403823 H 0.0 **** 0.06
21123 H 87.90325696700768 103.18812340643905 0.22846274858244442 H 0.0 **** 0.06
21124 H 89.33948543665733 102.55319082961199 -0.6116750457734383 H 0.0 **** 0.06
21125 H 89.46680654503601 104.02522284720948 0.3800350346007235 H 0.0 **** 0.06
21126 C 31.23776934478167 12.104325823332847 64.2575287190055 C 0.0 **** -0.24
21127 H 32.133683724104515 12.654681518485294 63.97070999131529 H 0.0 **** 0.06
21128 H 30.420689813242404 12.361617255926852 63.582731575384685 H 0.0 **** 0.06
21129 H 30.962007225780894 12.368284806025724 65.27917051234431 H 0.0 **** 0.06
21130 H 31.434584772282278 11.034278939100737 64.19938870602061 H 0.0 **** 0.06
21131 C 113.58516444382025 45.98767406473939 14.316019640304742 C 0.0 **** -0.24
21132 H 112.6000912162508 45.63420754616172 14.009865796376491 H 0.0 **** 0.06
21133 H 113.49936030896919 46.529208097889395 15.258588768870549 H 0.0 **** 0.06
21134 H 113.9870453577538 46.650772335933404 13.550629336752017 H 0.0 **** 0.06
21135 H 114.25194161234953 45.135860699414536 14.445804465052301 H 0.0 **** 0.06
21136 C 6.213477359858842 27.719018812455175 52.33457568405413 C 0.0 **** -0.24
21137 H 5.7463879683839565 27.918671915336233 51.370135375586244 H 0.0 **** 0.06
21138 H 6.972506736895085 26.94578773277675 52.21669839132164 H 0.0 **** 0.06
21139 H 5.455779136023651 27.381700480804824 53.04160658257109 H 0.0 **** 0.06
21140 H 6.678263000390473 28.631253859196562 52.70835835094607 H 0.0 **** 0.06
21141 C 51.09372134356113 107.66559704833298 100.61358240580572 C 0.0 **** -0.24
21142 H 50.98496818058163 108.03352122101808 99.59256545735565 H 0.0 **** 0.06
21143 H 51.923491756185655 108.17984103887773 101.09792950674498 H 0.0 **** 0.06
21144 H 51.2922650754179 106.59397444030151 100.59308010588484 H 0.0 **** 0.06
21145 H 50.17497692851228 107.8550312388769 101.16786780221878 H 0.0 **** 0.06
21146 C 29.79325135544508 83.48075824465755 53.8037929522729 C 0.0 **** -0.24
21147 H 29.257702743662747 83.0409478480359 52.962540638206505 H 0.0 **** 0.06
21148 H 29.50110642329841 82.97347817474926 54.72391376190435 H 0.0 **** 0.06
21149 H 29.546414144764867 84.53909008820554 53.877630405703044 H 0.0 **** 0.06
21150 H 30.866205349187936 83.36697785784176 53.65082666337 H 0.0 **** 0.06
21151 C 101.40341841297294 97.71707364282906 6.427231664587197 C 0.0 **** -0.24
21152 H 100.51180866482352 97.18989150135238 6.086640916386045 H 0.0 **** 0.06
21153 H 102.27682483231266 97.07792207785849 6.292159255338248 H 0.0 **** 0.06
21154 H 101.29523203229894 97.96852966519762 7.482183571989992 H 0.0 **** 0.06
21155 H 101.5285675680635 98.63177801871564 5.847286328639981 H 0.0 **** 0.06
21156 C 18.300516804898308 82.29413238523998 88.57395428853724 C 0.0 **** -0.24
21157 H 17.825700559108725 83.25765834224816 88.38460191817762 H 0.0 **** 0.06
21158 H 19.380994298970336 82.39625658061271 88.47130432043284 H 0.0 **** 0.06
21159 H 17.934112564226325 81.56063604634198 87.85632905952247 H 0.0 **** 0.06
21160 H 18.060741444724073 81.96413362910627 89.58462463439119 H 0.0 **** 0.06
21161 C 110.36990090927787 17.516970213361773 43.88806478177694 C 0.0 **** -0.24
21162 H 111.14529271943735 18.029407943176864 43.32018717610825 H 0.0 **** 0.06
21163 H 110.33521462123161 16.468592870816536 43.59142057474212 H 0.0 **** 0.06
21164 H 109.40492651403275 17.983528726684895 43.689453234155096 H 0.0 **** 0.06
21165 H 110.59443843561485 17.58617837880439 44.9529005208642 H 0.0 **** 0.06
21166 C 45.67904407575442 112.62594809390103 90.83961989582471 C 0.0 **** -0.24
21167 H 46.59769350447312 112.14495959705289 91.17522568602948 H 0.0 **** 0.06
21168 H 45.11662812090494 112.97813931650674 91.70544245952792 H 0.0 **** 0.06
21169 H 45.07658301687074 111.90873226669348 90.28189405528465 H 0.0 **** 0.06
21170 H 45.92460447091689 113.47152204092154 90.19708448021976 H 0.0 **** 0.06
21171 C 24.039422453946685 105.5980770550047 27.818059966090644 C 0.0 **** -0.24
21172 H 24.929215819788737 105.79886567627653 27.221730665213897 H 0.0 **** 0.06
21173 H 23.358024178045184 104.96276187894392 27.252653074036658 H 0.0 **** 0.06
21174 H 23.544049901622486 106.53892259598575 28.058961808380673 H 0.0 **** 0.06
21175 H 24.32692077103536 105.0922759664279 28.74100637323768 H 0.0 **** 0.06
21176 C 83.58541070649295 27.894099130019313 13.199144251337977 C 0.0 **** -0.24
21177 H 83.84742076613253 26.844909196114195 13.06272513981185 H 0.0 **** 0.06
21178 H 84.39681937604047 28.40805733069184 13.713489315791591 H 0.0 **** 0.06
21179 H 82.67459537225761 27.964536070568165 13.794349317650223 H 0.0 **** 0.06
21180 H 83.41943095954434 28.356613824119954 12.22664756993927 H 0.0 **** 0.06
21181 C 31.262064501782618 108.67011439345487 56.7015133264066 C 0.0 **** -0.24
21182 H 30.226312285188726 109.00604257657665 56.76354272853058 H 0.0 **** 0.06
21183 H 31.669276304688253 108.92782669180366 55.72376290236963 H 0.0 **** 0.06
21184 H 31.30157107874942 107.58973145233801 56.8388700525519 H 0.0 **** 0.06
21185 H 31.84888351050114 109.15789441051697 57.47974212373458 H 0.0 **** 0.06
21186 C 16.12779864197028 29.837108620500672 68.58044367923497 C 0.0 **** -0.24
21187 H 16.733839654428067 30.701998321163387 68.84857426421897 H 0.0 **** 0.06
21188 H 15.72290856597618 29.38321906480848 69.4854073855808 H 0.0 **** 0.06
21189 H 16.744925993317732 29.109385364896745 68.05467320770205 H 0.0 **** 0.06
21190 H 15.308215541003364 30.153613179718874 67.93518142345772 H 0.0 **** 0.06
21191 C 91.47403767467864 86.38377628109032 34.369095053727904 C 0.0 **** -0.24
21192 H 91.36340684675966 86.27472305742631 35.447613544522994 H 0.0 **** 0.06
21193 H 92.37059711530276 85.85817934694524 34.04093201840112 H 0.0 **** 0.06
21194 H 91.55991978432968 87.44123150996953 34.118211231510884 H 0.0 **** 0.06
21195 H 90.60150426326683 85.96162242135728 33.87064994881166 H 0.0 **** 0.06
21196 C 6.792092592439516 18.94731059194044 91.30452875503269 C 0.0 **** -0.24
21197 H 6.925444165331669 19.941179452360487 90.8776845312936 H 0.0 **** 0.06
21198 H 7.733507450346863 18.399954812912355 91.25243548174595 H 0.0 **** 0.06
21199 H 6.026882366310389 18.40980586263079 90.74393979973468 H 0.0 **** 0.06
21200 H 6.4820317067291455 19.038625066833273 92.34620959126855 H 0.0 **** 0.06
21201 C 40.1123821804765 105.03996255832027 41.027331974982474 C 0.0 **** -0.24
21202 H 40.32115187303486 104.53227985978282 41.96933170558444 H 0.0 **** 0.06
21203 H 40.07110428659117 106.11615200081746 41.1963154190681 H 0.0 **** 0.06
21204 H 39.154171866433224 104.69628829386494 40.63518522591548 H 0.0 **** 0.06
21205 H 40.901114274522236 104.81358479008776 40.310128563604934 H 0.0 **** 0.06
21206 C 69.92651703965447 73.40235518527564 60.69587867636139 C 0.0 **** -0.24
21207 H 69.77621292373456 74.47894615610463 60.62220738323103 H 0.0 **** 0.06
21208 H 69.22447314238494 72.89112941946411 60.035214844757945 H 0.0 **** 0.06
21209 H 69.75748677530268 73.08156326025068 61.723391803798876 H 0.0 **** 0.06
21210 H 70.9468742199036 73.15660612742136 60.40080983917548 H 0.0 **** 0.06
21211 C 38.08795919265153 47.47798962220876 95.90550677095959 C 0.0 **** -0.24
21212 H 37.01305917596695 47.63205573968148 96.00536471908427 H 0.0 **** 0.06
21213 H 38.36330668080211 46.53145599885597 96.37001488877121 H 0.0 **** 0.06
21214 H 38.61865052131739 48.29364175075232 96.39747357220591 H 0.0 **** 0.06
21215 H 38.35437847019147 47.45677555664006 94.84878083816082 H 0.0 **** 0.06
21216 C 82.01477778992458 34.56436373619792 37.35405402143443 C 0.0 **** -0.24
21217 H 81.40985182398629 35.453292875893496 37.17574105117502 H 0.0 **** 0.06
21218 H 81.44685600404165 33.67636474487679 37.07610147997548 H 0.0 **** 0.06
21219 H 82.27866976891099 34.511654796288 38.41109605100684 H 0.0 **** 0.06
21220 H 82.92355308122936 34.61844647857558 36.75519055334062 H 0.0 **** 0.06
21221 C 103.48652159803365 57.70519735952476 51.88016310829178 C 0.0 **** -0.24
21222 H 102.91132556273303 57.03214514094208 51.24509449568785 H 0.0 **** 0.06
21223 H 103.61163369106197 58.66303889938254 51.3743651615944 H 0.0 **** 0.06
21224 H 104.46459108775534 57.269380160819026 52.08049115363593 H 0.0 **** 0.06
21225 H 102.95680706308065 57.85744930629073 52.82141754593397 H 0.0 **** 0.06
21226 C 1.1876014594393691 30.400932598846538 64.48132355426335 C 0.0 **** -0.24
21227 H 1.3766748462671838 31.467942202339344 64.59734813579308 H 0.0 **** 0.06
21228 H 2.114315723085056 29.84823533269082 64.64127502415866 H 0.0 **** 0.06
21229 H 0.8162651980612203 30.205184432574413 63.476269376885256 H 0.0 **** 0.06
21230 H 0.4446489831242939 30.081815281036512 65.2127357225375 H 0.0 **** 0.06
21231 C 0.6701588812135952 27.58463560484131 33.26778177319704 C 0.0 **** -0.24
21232 H 0.8273653680015052 28.556737401902353 32.80159391459736 H 0.0 **** 0.06
21233 H 1.2998033098673272 26.840818088019944 32.779476168384946 H 0.0 **** 0.06
21234 H -0.37628370021498014 27.29771271683296 33.16643031302064 H 0.0 **** 0.06
21235 H 0.9298429808024444 27.642734428929714 34.324930616149146 H 0.0 **** 0.06
21236 C 1.1123200676182847 101.89978868760383 78.32071703359185 C 0.0 **** -0.24
21237 H 0.3633152724937645 102.34217947593606 77.66351067053728 H 0.0 **** 0.06
21238 H 1.7261525210454352 102.68945852141582 78.75482448514748 H 0.0 **** 0.06
21239 H 1.7453589242362284 101.22307235525378 77.74656828106907 H 0.0 **** 0.06
21240 H 0.6163590560755239 101.34543406142771 79.11734026743306 H 0.0 **** 0.06
21241 C 35.314420723561625 107.0564391930074 47.54156259289742 C 0.0 **** -0.24
21242 H 34.658171508545934 106.75214783653573 48.3574190437881 H 0.0 **** 0.06
21243 H 36.32658649459998 106.70243831284597 47.73879045211693 H 0.0 **** 0.06
21244 H 35.3174745205535 108.14299880985439 47.46386603710137 H 0.0 **** 0.06
21245 H 34.95469962020971 106.62608051996972 46.60642615214286 H 0.0 **** 0.06
21246 C 73.87394503284787 7.392450808096351 43.04280441450214 C 0.0 **** -0.24
21247 H 73.53494900364356 6.787897336829596 42.20099991692356 H 0.0 **** 0.06
21248 H 73.65034013040665 8.442368811471937 42.849281557119134 H 0.0 **** 0.06
21249 H 74.94899371533575 7.266681686001313 43.170348159130505 H 0.0 **** 0.06
21250 H 73.36052301474365 7.072132052383351 43.94986160181669 H 0.0 **** 0.06
21251 C 80.29970022460526 105.09302157718224 114.17139920175184 C 0.0 **** -0.24
21252 H 79.67093740938316 104.59903395232203 114.91300393880614 H 0.0 **** 0.06
21253 H 81.32037308678196 104.71735151769357 114.25316084441245 H 0.0 **** 0.06
21254 H 80.29238847453442 106.16861126891285 114.34677107913916 H 0.0 **** 0.06
21255 H 79.91501575586352 104.88465912306236 113.17295394868088 H 0.0 **** 0.06
21256 C 17.2127053251932 55.53639496196399 8.43117659930428 C 0.0 **** -0.24
21257 H 16.492474100726938 54.892119590565954 7.927082178917459 H 0.0 **** 0.06
21258 H 16.708703087399655 56.43433644438386 8.789346716396011 H 0.0 **** 0.06
21259 H 18.00135485176355 55.81555965505086 7.732482129559315 H 0.0 **** 0.06
21260 H 17.648407390678273 55.001962835638494 9.275145767342309 H 0.0 **** 0.06
21261 C 61.179340012725504 50.69351706572348 6.288738692199614 C 0.0 **** -0.24
21262 H 62.03567732890167 50.45211966176356 6.919776534021102 H 0.0 **** 0.06
21263 H 60.78735052147414 51.67175309286239 6.5692463532958865 H 0.0 **** 0.06
21264 H 60.405501590503945 49.93866674703315 6.42343086129884 H 0.0 **** 0.06
21265 H 61.49178474592401 50.712707310661585 5.245481826327236 H 0.0 **** 0.06
21266 C 47.81111123027105 55.86469276195527 37.47199502483255 C 0.0 **** -0.24
21267 H 48.008085626294275 56.932298648907846 37.58040098504961 H 0.0 **** 0.06
21268 H 48.675353144145475 55.381315908686275 37.016591150201634 H 0.0 **** 0.06
21269 H 46.937111427721106 55.7189506053019 36.838208421394654 H 0.0 **** 0.06
21270 H 47.62610880153528 55.429001070403274 38.45331391024695 H 0.0 **** 0.06
21271 C 54.256572855981254 72.5568338427255 2.1030448957551187 C 0.0 **** -0.24
21272 H 54.416663766798855 71.64024987442852 1.535400916479233 H 0.0 **** 0.06
21273 H 53.712978664470256 72.32578520242632 3.019328621710656 H 0.0 **** 0.06
21274 H 53.676257987805776 73.25863694764004 1.5032065184995531 H 0.0 **** 0.06
21275 H 55.219589386488494 73.00208981751098 2.35322933270686 H 0.0 **** 0.06
21276 C 12.33738288546698 101.43519694898396 44.604824906499886 C 0.0 **** -0.24
21277 H 13.025648871796392 101.20232323108718 45.41718548860135 H 0.0 **** 0.06
21278 H 12.248829784585055 100.57022651753499 43.94559458916241 H 0.0 **** 0.06
21279 H 12.717172922557467 102.2851926606674 44.03874387905999 H 0.0 **** 0.06
21280 H 11.358414062723341 101.67962342105426 45.016359441229525 H 0.0 **** 0.06
21281 C 4.947823202972206 44.067063096844635 102.06052517617226 C 0.0 **** -0.24
21282 H 5.89962700281175 44.51260664506444 101.77338693764551 H 0.0 **** 0.06
21283 H 4.659267249596622 43.32020951116897 101.32052437837504 H 0.0 **** 0.06
21284 H 4.184113291633597 44.843332138586376 102.10975444749715 H 0.0 **** 0.06
21285 H 5.048144474025413 43.591738026827215 103.03623347274578 H 0.0 **** 0.06
21286 C 78.94159817945413 9.852027633846603 22.642798795605074 C 0.0 **** -0.24
21287 H 78.19806883676034 9.490668069500941 23.352192383900785 H 0.0 **** 0.06
21288 H 78.4612030847112 10.50335403860413 21.91247527230837 H 0.0 **** 0.06
21289 H 79.39711002041102 9.004626997582022 22.130510707927414 H 0.0 **** 0.06
21290 H 79.71166531698537 10.409932929412292 23.175815930057297 H 0.0 **** 0.06
21291 C 99.49887671309665 43.73141778440868 114.60287293486219 C 0.0 **** -0.24
21292 H 100.44129284158095 44.26181824499207 114.73890657126299 H 0.0 **** 0.06
21293 H 99.21075529393391 43.255681501182266 115.54047200748616 H 0.0 **** 0.06
21294 H 99.61889178209242 42.970807481937925 113.83087982423947 H 0.0 **** 0.06
21295 H 98.72511531759864 44.436789621722994 114.30006304337435 H 0.0 **** 0.06
21296 C 88.74055374896926 104.37940425150876 61.68032143621914 C 0.0 **** -0.24
21297 H 89.48702988837576 103.59368151677731 61.803914416754104 H 0.0 **** 0.06
21298 H 88.17375514812812 104.4898513223306 62.60567696307357 H 0.0 **** 0.06
21299 H 88.06417570812602 104.11254759834344 60.868938557277055 H 0.0 **** 0.06
21300 H 89.23934810219325 105.31968801190379 61.445245675060484 H 0.0 **** 0.06
21301 C 47.20939513786213 10.704862412861473 7.157530153365656 C 0.0 **** -0.24
21302 H 47.52206957026647 9.686800520519483 6.924610276334192 H 0.0 **** 0.06
21303 H 46.590710510802516 10.698862853764183 8.055483026416539 H 0.0 **** 0.06
21304 H 46.63526028104885 11.108318178932734 6.323289425799942 H 0.0 **** 0.06
21305 H 48.08954018933092 11.325468098229635 7.326737884911893 H 0.0 **** 0.06
21306 C 72.59048122321403 57.21664310100866 92.18781300944917 C 0.0 **** -0.24
21307 H 71.5887503120639 57.51038798927479 92.50098879350728 H 0.0 **** 0.06
21308 H 73.04377838026281 58.02761892543313 91.61644014223984 H 0.0 **** 0.06
21309 H 72.52888372120944 56.32350153462741 91.5660366385608 H 0.0 **** 0.06
21310 H 73.19838878575055 57.00624471506026 93.06747649753643 H 0.0 **** 0.06
21311 C 76.55556725521484 96.46653664396038 56.618507431396274 C 0.0 **** -0.24
21312 H 76.7679488783645 96.48700693261014 57.68748123187425 H 0.0 **** 0.06
21313 H 77.47064943457696 96.67583758558874 56.06342927897996 H 0.0 **** 0.06
21314 H 75.80675506715392 97.22233283141713 56.38289045791951 H 0.0 **** 0.06
21315 H 76.17930497907201 95.4818858804035 56.34208654799095 H 0.0 **** 0.06
21316 C 75.86913087208325 34.14948752893157 17.03079795767499 C 0.0 **** -0.24
21317 H 75.52601655534659 34.60599308378901 16.10198460134157 H 0.0 **** 0.06
21318 H 76.63216344313685 33.402967305444655 16.807690616848845 H 0.0 **** 0.06
21319 H 75.02901828769285 33.671286555147304 17.533149990836847 H 0.0 **** 0.06
21320 H 76.2911487665109 34.91722742573189 17.679163056383032 H 0.0 **** 0.06
21321 C 36.054708748003605 3.5711126365951884 41.95506542515943 C 0.0 **** -0.24
21322 H 35.227969789122255 3.6220475094871176 42.663620504288104 H 0.0 **** 0.06
21323 H 36.92030558311069 3.1183247627893707 42.439828556425624 H 0.0 **** 0.06
21324 H 36.30864807182529 4.57649504024063 41.62096373719487 H 0.0 **** 0.06
21325 H 35.76065377049255 2.965568760406356 41.09768204620201 H 0.0 **** 0.06
21326 C 99.79137703482655 47.393949483234145 73.04617253012302 C 0.0 **** -0.24
21327 H 99.17391511285138 48.16868793871266 73.50126822791083 H 0.0 **** 0.06
21328 H 100.32679062634773 46.851592577829834 73.8262772107422 H 0.0 **** 0.06
21329 H 100.50814844318015 47.85371426919635 72.36554776418362 H 0.0 **** 0.06
21330 H 99.15688183915904 46.70159738506938 72.49254864749346 H 0.0 **** 0.06
21331 C 90.926961735894 55.241468200093635 107.71070636372417 C 0.0 **** -0.24
21332 H 90.19984835844073 55.82830428153022 107.14817227842607 H 0.0 **** 0.06
21333 H 91.85638822659445 55.17373466032208 107.14387867839645 H 0.0 **** 0.06
21334 H 90.53107072581827 54.240387938971736 107.88108997129666 H 0.0 **** 0.06
21335 H 91.11975945996937 55.724536864308845 108.66820081447091 H 0.0 **** 0.06
21336 C 34.510926233945355 47.232870444679776 97.13847708620452 C 0.0 **** -0.24
21337 H 34.802913219604704 48.03478946980317 96.46164302542738 H 0.0 **** 0.06
21338 H 33.81543663655353 46.564419734505634 96.63054415956597 H 0.0 **** 0.06
21339 H 34.03007515096306 47.657447646720186 98.0195442692673 H 0.0 **** 0.06
21340 H 35.39618703934295 46.673414786799896 97.44261143287929 H 0.0 **** 0.06
21341 C 73.25879520383472 34.10048481866244 48.91654882948251 C 0.0 **** -0.24
21342 H 74.12861430597974 34.655805398087296 49.269599585684944 H 0.0 **** 0.06
21343 H 72.70057859104236 34.71424630654292 48.20937061126335 H 0.0 **** 0.06
21344 H 72.62102029109604 33.849281118484726 49.763164882281615 H 0.0 **** 0.06
21345 H 73.58732709278019 33.18547377559565 48.424520877064 H 0.0 **** 0.06
21346 C 65.87234730827859 49.71251725465265 65.22232674944539 C 0.0 **** -0.24
21347 H 65.27393977656564 49.63543847848007 66.12952859705982 H 0.0 **** 0.06
21348 H 65.95926193119041 50.759715739720434 64.93244547596967 H 0.0 **** 0.06
21349 H 65.3899444011409 49.1524169419929 64.42105709392615 H 0.0 **** 0.06
21350 H 66.86531965821763 49.3021806884455 65.40649186741192 H 0.0 **** 0.06
21351 C 93.00157019650865 11.05574985935256 82.43553314352937 C 0.0 **** -0.24
21352 H 92.87349323560653 11.59947077307362 83.37152343515183 H 0.0 **** 0.06
21353 H 93.58969636092661 10.154984755396924 82.61591026620965 H 0.0 **** 0.06
21354 H 93.51894901068596 11.689621383709834 81.7154435569158 H 0.0 **** 0.06
21355 H 92.02449642933476 10.778840187455856 82.04062200642676 H 0.0 **** 0.06
21356 C 18.34358547050411 3.005799183620269 19.99025439148427 C 0.0 **** -0.24
21357 H 18.900275147456767 2.9034431711791626 20.92172785377481 H 0.0 **** 0.06
21358 H 18.500419946897892 4.003874014134453 19.581544803787978 H 0.0 **** 0.06
21359 H 17.28094281427468 2.854824451340818 20.1827257803602 H 0.0 **** 0.06
21360 H 18.692703973387154 2.261055097826585 19.275019128014037 H 0.0 **** 0.06
21361 C 21.789309895445268 23.888686914664675 12.297922065480492 C 0.0 **** -0.24
21362 H 22.788112119219885 24.25806297650655 12.531880282652594 H 0.0 **** 0.06
21363 H 21.05247667785682 24.65254189593628 12.548906959680835 H 0.0 **** 0.06
21364 H 21.590538304125488 22.98754923310929 12.876705797557833 H 0.0 **** 0.06
21365 H 21.72765718520327 23.659154040889575 11.233953742457288 H 0.0 **** 0.06
21366 C 87.9071117607686 33.42596678129476 78.83516014251668 C 0.0 **** -0.24
21367 H 88.74600386582858 34.1154339091639 78.74236974195438 H 0.0 **** 0.06
21368 H 87.10483888463435 33.90433425946108 79.39731116837967 H 0.0 **** 0.06
21369 H 88.23201215944016 32.52714177930525 79.35989183769601 H 0.0 **** 0.06
21370 H 87.54650198460433 33.15717018408472 77.84283616325303 H 0.0 **** 0.06
21371 C 93.16068879959579 99.31049249731785 95.48610755198749 C 0.0 **** -0.24
21372 H 92.86314355898156 98.4851642936687 96.13287655708584 H 0.0 **** 0.06
21373 H 92.4958212990619 100.1582859762606 95.64949774153146 H 0.0 **** 0.06
21374 H 93.09962294478515 98.99610871818507 94.44380394169775 H 0.0 **** 0.06
21375 H 94.18555393775719 99.60231363779775 95.71799093661056 H 0.0 **** 0.06
21376 C 87.70617274675897 46.9156215614548 32.430270532692724 C 0.0 **** -0.24
21377 H 87.24196235737853 47.73762145948717 32.97568769356488 H 0.0 **** 0.06
21378 H 88.32244231462946 47.31702435249366 31.62558326202071 H 0.0 **** 0.06
21379 H 86.93091757300945 46.27568898463315 32.01068908676651 H 0.0 **** 0.06
21380 H 88.32858172721373 46.33468349751769 33.110525605960675 H 0.0 **** 0.06
21381 C 74.79362558089045 39.07644646377966 51.78329781918808 C 0.0 **** -0.24
21382 H 75.35434043786063 38.24419154335658 52.2081007468031 H 0.0 **** 0.06
21383 H 75.20552566804321 39.32965225289955 50.80575590959734 H 0.0 **** 0.06
21384 H 74.86713962959118 39.9393669783224 52.44365205706856 H 0.0 **** 0.06
21385 H 73.74663704339895 38.78969151566426 51.6734583669633 H 0.0 **** 0.06
21386 C 114.35788695754441 24.300076704169157 12.432304569406973 C 0.0 **** -0.24
21387 H 114.52985200974177 23.231822873969406 12.558825957386034 H 0.0 **** 0.06
21388 H 113.99113648096375 24.722624623827812 13.367922722307991 H 0.0 **** 0.06
21389 H 113.61737930651711 24.457582951486927 11.647916792371142 H 0.0 **** 0.06
21390 H 115.2920218005353 24.78799866603623 12.153790246897412 H 0.0 **** 0.06
21391 C 84.94593046303973 26.603252429596125 58.13701244757243 C 0.0 **** -0.24
21392 H 85.17511508253463 25.938356629904717 58.969815518596306 H 0.0 **** 0.06
21393 H 84.35127817255182 27.44312307125432 58.496339491375466 H 0.0 **** 0.06
21394 H 84.3822065455374 26.055814708187597 57.38076028987058 H 0.0 **** 0.06
21395 H 85.87348086481362 26.973594452491056 57.70247947970461 H 0.0 **** 0.06
21396 C 100.36259777863168 102.3359782060175 100.20567290636848 C 0.0 **** -0.24
21397 H 101.13683006991559 101.95281368535404 99.5408275978674 H 0.0 **** 0.06
21398 H 99.39479197416168 102.27808533385598 99.70670261078175 H 0.0 **** 0.06
21399 H 100.58038783224191 103.37315128611158 100.45910814146924 H 0.0 **** 0.06
21400 H 100.33800116037989 101.73729294767276 101.11717278852234 H 0.0 **** 0.06
21401 C 110.23668577273835 115.80614525118744 34.71225234611177 C 0.0 **** -0.24
21402 H 110.08499403439046 116.67110099570056 35.35770344595761 H 0.0 **** 0.06
21403 H 110.2035824361899 116.12156912292363 33.668653281574336 H 0.0 **** 0.06
21404 H 109.45222058326209 115.07304536344583 34.89619201649549 H 0.0 **** 0.06
21405 H 111.20803330611312 115.36077215883995 34.926552895850705 H 0.0 **** 0.06
21406 C 63.867496255247794 16.391932979511267 12.071410669344143 C 0.0 **** -0.24
21407 H 63.753594315079205 15.757448670445484 12.950711533865434 H 0.0 **** 0.06
21408 H 63.47560850835641 17.38567877105575 12.288123057247482 H 0.0 **** 0.06
21409 H 63.316872093155446 15.957905286180392 11.236383722799761 H 0.0 **** 0.06
21410 H 64.92324220868005 16.465173491354278 11.811916492174909 H 0.0 **** 0.06
21411 C 8.19958734596014 10.012030343195647 87.84492275884872 C 0.0 **** -0.24
21412 H 7.258926202701957 9.462526523131345 87.87720457007856 H 0.0 **** 0.06
21413 H 8.04911271240087 11.012961362486266 88.2511524073272 H 0.0 **** 0.06
21414 H 8.540920449434623 10.086623694345036 86.81134274706432 H 0.0 **** 0.06
21415 H 8.948133100005805 9.486745028778216 88.43756643023374 H 0.0 **** 0.06
21416 C 77.99490839501237 91.00426128410152 72.28811790377648 C 0.0 **** -0.24
21417 H 77.61163667168202 90.94677404792745 71.26932402305385 H 0.0 **** 0.06
21418 H 78.94900657545949 91.53160888284788 72.28772464765686 H 0.0 **** 0.06
21419 H 78.13685584345316 89.99677853036408 72.68017457462028 H 0.0 **** 0.06
21420 H 77.28263756479228 91.54185622489393 72.9139269017343 H 0.0 **** 0.06
21421 C 38.904598461790954 102.93759975468132 16.339543824894164 C 0.0 **** -0.24
21422 H 39.47791727317323 103.79199850506706 16.699603951298474 H 0.0 **** 0.06
21423 H 39.34854022836865 102.56623812417959 15.415903086967816 H 0.0 **** 0.06
21424 H 37.87618738303607 103.24462432353673 16.150831085892417 H 0.0 **** 0.06
21425 H 38.91655907394477 102.14866805030141 17.09209596304042 H 0.0 **** 0.06
21426 C 46.972830628356576 34.032610288987655 37.99808789967096 C 0.0 **** -0.24
21427 H 46.39684751713071 33.11566175156173 38.12009921880133 H 0.0 **** 0.06
21428 H 46.50062171941107 34.659534506558884 37.24059213306833 H 0.0 **** 0.06
21429 H 47.98738057440107 33.78542668591507 37.68457606038686 H 0.0 **** 0.06
21430 H 47.00575481804037 34.56955356981416 38.94589476531422 H 0.0 **** 0.06
21431 C 12.79788335935811 68.83723063260283 6.804260108305066 C 0.0 **** -0.24
21432 H 13.597050462684052 68.7804361718216 7.5447163294421 H 0.0 **** 0.06
21433 H 13.028747117086482 69.6198574364702 6.081636990901984 H 0.0 **** 0.06
21434 H 11.857084296819778 69.06929048528463 7.303587981002542 H 0.0 **** 0.06
21435 H 12.710677379636394 67.88088378919244 6.289839342997643 H 0.0 **** 0.06
21436 C 29.868961722754165 109.61549363142888 114.04508382016618 C 0.0 **** -0.24
21437 H 30.780396158134238 109.4783700908971 114.62716575890539 H 0.0 **** 0.06
21438 H 29.983040294066285 109.1352471332433 113.07251586407742 H 0.0 **** 0.06
21439 H 29.68325506775281 110.67989141203927 113.90628797573646 H 0.0 **** 0.06
21440 H 29.029357088533573 109.16578315020283 114.57523899983231 H 0.0 **** 0.06
21441 C 42.27049924335074 73.6143606535843 31.93143719976507 C 0.0 **** -0.24
21442 H 42.86111802066432 74.32036813631765 32.51545250257021 H 0.0 **** 0.06
21443 H 42.80106564825405 73.37059967072358 31.010594171248016 H 0.0 **** 0.06
21444 H 41.306803574670994 74.0618324730651 31.687433888287757 H 0.0 **** 0.06
21445 H 42.111650271364624 72.7060069257634 32.511729725233664 H 0.0 **** 0.06
21446 C 39.46332751251242 85.2968191136616 12.011772636099888 C 0.0 **** -0.24
21447 H 39.82862719727416 84.2733646576855 12.104859515963732 H 0.0 **** 0.06
21448 H 38.49530274485289 85.38207306897306 12.505953578512802 H 0.0 **** 0.06
21449 H 39.35716330784851 85.55007224418023 10.95691720511146 H 0.0 **** 0.06
21450 H 40.172155684646384 85.97882062723707 12.479924794560695 H 0.0 **** 0.06
21451 C 73.18395272834644 115.44439243322581 73.98759416246378 C 0.0 **** -0.24
21452 H 74.23233767103719 115.72796663209746 73.89980691728155 H 0.0 **** 0.06
21453 H 73.11450719202827 114.39642740155452 74.28124130381707 H 0.0 **** 0.06
21454 H 72.68871466940485 115.58543097239033 73.02714357414791 H 0.0 **** 0.06
21455 H 72.70103399150196 116.06616437870565 74.74080996893048 H 0.0 **** 0.06
21456 C 19.14255537429787 41.54227586274331 73.25001562147241 C 0.0 **** -0.24
21457 H 18.389881680544676 41.39439843220802 72.47594165150463 H 0.0 **** 0.06
21458 H 20.13415550483012 41.53972675002933 72.79716171232843 H 0.0 **** 0.06
21459 H 19.07348718977309 40.736232151715 73.98077831183431 H 0.0 **** 0.06
21460 H 18.970584304159075 42.49681619600494 73.74527973979812 H 0.0 **** 0.06
21461 C 33.009417464877885 49.10638592816625 41.539035560357746 C 0.0 **** -0.24
21462 H 34.01164960176857 48.99806043703353 41.12488670427098 H 0.0 **** 0.06
21463 H 32.39166319629274 48.26679559447004 41.21953167895258 H 0.0 **** 0.06
21464 H 32.56781339708408 50.03797520739283 41.18427752506385 H 0.0 **** 0.06
21465 H 33.06654366436618 49.12271247376833 42.62744633314378 H 0.0 **** 0.06
21466 C 43.651732797566154 110.16803869071475 113.25808579901877 C 0.0 **** -0.24
21467 H 44.38049109491058 110.8528781219988 112.82528766781888 H 0.0 **** 0.06
21468 H 43.83489799798318 110.072701713517 114.32901829855692 H 0.0 **** 0.06
21469 H 43.74759846187149 109.19024762062497 112.78426889385631 H 0.0 **** 0.06
21470 H 42.646155502949114 110.55432200278199 113.09406315944867 H 0.0 **** 0.06
21471 C 71.53540240284264 62.332825929555845 70.22085538685417 C 0.0 **** -0.24
21472 H 71.76638544598123 61.53774844396491 70.9294551064873 H 0.0 **** 0.06
21473 H 72.46047901282154 62.807959851056616 69.89382632278932 H 0.0 **** 0.06
21474 H 70.89605128088971 63.07371700649866 70.70138067106944 H 0.0 **** 0.06
21475 H 71.01843943978596 61.91152811968352 69.35785799576291 H 0.0 **** 0.06
21476 C 54.60461364246942 97.75154896650025 86.72978238983677 C 0.0 **** -0.24
21477 H 53.70805008754189 97.37847597356372 86.23489928390194 H 0.0 **** 0.06
21478 H 54.341894013681895 98.59371367759962 87.36982219356861 H 0.0 **** 0.06
21479 H 55.32495741592811 98.07686024404882 85.97819907912287 H 0.0 **** 0.06
21480 H 55.04393733752693 96.95733990911955 87.33401469116103 H 0.0 **** 0.06
21481 C 27.39195819531291 82.9872112601958 23.62973495136002 C 0.0 **** -0.24
21482 H 27.73039216310731 83.89527392696402 23.1298272985145 H 0.0 **** 0.06
21483 H 27.844803535321603 82.92736927396354 24.619021540580178 H 0.0 **** 0.06
21484 H 27.685133406065006 82.11811114591376 23.041238371820228 H 0.0 **** 0.06
21485 H 26.306165112397537 83.01066668147504 23.72759835603837 H 0.0 **** 0.06
21486 C 97.67967697948936 33.001888423481944 9.439182235442303 C 0.0 **** -0.24
21487 H 97.00497664927704 33.625259481719894 8.852068977777918 H 0.0 **** 0.06
21488 H 98.43023169064335 33.629618538388456 9.91821294516322 H 0.0 **** 0.06
21489 H 98.17233418086767 32.28263710700915 8.782970730921363 H 0.0 **** 0.06
21490 H 97.1111762055165 32.46805104383017 10.200306043707542 H 0.0 **** 0.06
21491 C 9.477942724427791 89.4043040941369 78.1198516675627 C 0.0 **** -0.24
21492 H 8.78958699160384 88.7838701097204 78.6942923165104 H 0.0 **** 0.06
21493 H 9.943903358868894 90.13721385009896 78.77961831351692 H 0.0 **** 0.06
21494 H 8.93070977195805 89.9211022367092 77.33259399862104 H 0.0 **** 0.06
21495 H 10.248344118141105 88.77471682242123 77.67404391021813 H 0.0 **** 0.06
21496 C 1.788514450911805 110.34978032545729 53.372120667919205 C 0.0 **** -0.24
21497 H 1.1676193713247756 110.77238023135911 52.58192790132756 H 0.0 **** 0.06
21498 H 1.510196309809686 110.79477464605895 54.32844913921019 H 0.0 **** 0.06
21499 H 2.837100918715464 110.56284546323718 53.16339200473493 H 0.0 **** 0.06
21500 H 1.6366843999179252 109.27152764773335 53.4151291635298 H 0.0 **** 0.06
21501 C 35.65986999762707 56.159449493418855 44.09490871507256 C 0.0 **** -0.24
21502 H 36.4379541077397 56.918000880667186 44.16764632482591 H 0.0 **** 0.06
21503 H 34.89510729112038 56.34918917137514 44.84781229510364 H 0.0 **** 0.06
21504 H 36.09599022762295 55.17382720169085 44.261506686364754 H 0.0 **** 0.06
21505 H 35.21033542605147 56.19456506922395 43.102956859891265 H 0.0 **** 0.06
21506 C 50.98197416100578 87.65120245668265 95.31804078402538 C 0.0 **** -0.24
21507 H 50.30746001560556 88.22773413467388 95.95183563445974 H 0.0 **** 0.06
21508 H 50.41514376469573 87.18776346648923 94.51122946379678 H 0.0 **** 0.06
21509 H 51.466411430916196 86.87757061379776 95.91415343582523 H 0.0 **** 0.06
21510 H 51.73956129877703 88.31342815308466 94.8973307879105 H 0.0 **** 0.06
21511 C 42.94620115795709 43.264414563700655 16.881333634452826 C 0.0 **** -0.24
21512 H 43.383098211125905 44.235202340841965 16.650234215550256 H 0.0 **** 0.06
21513 H 43.39956151444383 42.502312416990776 16.246370050961563 H 0.0 **** 0.06
21514 H 41.87239591498988 43.29697952948095 16.699287652650312 H 0.0 **** 0.06
21515 H 43.13108921481694 43.022445567439604 17.92780310882577 H 0.0 **** 0.06
21516 C 90.92280394166991 65.0679539938547 69.76652566241987 C 0.0 **** -0.24
21517 H 90.18182728845085 64.38014470021204 70.1754486532416 H 0.0 **** 0.06
21518 H 90.45195593746652 66.03132305963192 69.56741453271985 H 0.0 **** 0.06
21519 H 91.32413424068181 64.66024153333461 68.83903308932994 H 0.0 **** 0.06
21520 H 91.73156552685711 65.1993108081495 70.48574404460251 H 0.0 **** 0.06
21521 C 103.23347115573574 93.16470421471507 28.60006401035122 C 0.0 **** -0.24
21522 H 103.71913604059225 92.62163928253443 27.788779156023907 H 0.0 **** 0.06
21523 H 102.44740323208461 93.80007498101963 28.191462492711423 H 0.0 **** 0.06
21524 H 103.96963197977703 93.78227650489401 29.114650907100042 H 0.0 **** 0.06
21525 H 102.79879623277307 92.4547944473893 29.30340729073191 H 0.0 **** 0.06
21526 C 98.40840331623542 17.622944617163853 62.67766154372118 C 0.0 **** -0.24
21527 H 98.42871267744175 16.762762623982695 63.3465482399533 H 0.0 **** 0.06
21528 H 98.70930080164905 17.31168414424687 61.67695148104945 H 0.0 **** 0.06
21529 H 99.09747825925848 18.383581320330222 63.04400218394954 H 0.0 **** 0.06
21530 H 97.39851713431707 18.032853122591433 62.643340437079964 H 0.0 **** 0.06
21531 C 0.1611024738788558 0.7377693983420386 12.465018023662793 C 0.0 **** -0.24
21532 H -0.24997423084880666 -0.1498537853669859 12.946144832052354 H 0.0 **** 0.06
21533 H -0.5582120258659984 1.5541801472476209 12.533275870286374 H 0.0 **** 0.06
21534 H 0.36556844789745924 0.5188077468496317 11.416653837201494 H 0.0 **** 0.06
21535 H 1.086705896958847 1.0239389991785401 12.963069372441026 H 0.0 **** 0.06
21536 C 101.52542426208899 24.317862757652108 1.0867307488518918 C 0.0 **** -0.24
21537 H 100.69297516571964 23.61598131745359 1.137553148723157 H 0.0 **** 0.06
21538 H 101.48645949103954 24.98924440816245 1.9448207322156463 H 0.0 **** 0.06
21539 H 101.45615811800693 24.897486223341332 0.16681024062745564 H 0.0 **** 0.06
21540 H 102.46596251357903 23.766066933611853 1.0986553853542205 H 0.0 **** 0.06
21541 C 112.00012085389903 20.117134460543355 97.00393123236921 C 0.0 **** -0.24
21542 H 111.087855563537 19.85034678531059 96.47059613417872 H 0.0 **** 0.06
21543 H 112.71824067079706 20.54587542788289 96.30346053560274 H 0.0 **** 0.06
21544 H 112.42768367578248 19.224790191199986 97.46194296555393 H 0.0 **** 0.06
21545 H 111.76718027543706 20.847338754135478 97.77886628443588 H 0.0 **** 0.06
21546 C 61.78638064913067 3.74656497498745 44.61696329589353 C 0.0 **** -0.24
21547 H 61.728225207244584 3.263871928052481 45.59279082265624 H 0.0 **** 0.06
21548 H 60.86240893307018 4.294437810970635 44.42707465536347 H 0.0 **** 0.06
21549 H 61.924854428445705 2.989240313761286 43.845292808992724 H 0.0 **** 0.06
21550 H 62.62899869548266 4.438392539403594 44.60360457725022 H 0.0 **** 0.06
21551 C 18.395778207284366 88.5945833580733 13.029255314809006 C 0.0 **** -0.24
21552 H 18.722606397173138 87.87474516961538 13.779851276695226 H 0.0 **** 0.06
21553 H 17.345783250420425 88.8387627085381 13.193614860058009 H 0.0 **** 0.06
21554 H 18.517361015062534 88.16367429662529 12.035594934779965 H 0.0 **** 0.06
21555 H 18.99612586618383 89.50105765640944 13.108640567381535 H 0.0 **** 0.06
21556 C 29.81925374269983 94.20333480532415 107.13784591115876 C 0.0 **** -0.24
21557 H 28.98328356299254 94.25314305811611 107.83626127497362 H 0.0 **** 0.06
21558 H 29.54010209331291 94.69096397952765 106.20268697606431 H 0.0 **** 0.06
21559 H 30.068621812228827 93.1608471944715 106.94380203411433 H 0.0 **** 0.06
21560 H 30.682720437011028 94.71052904990864 107.56904919192607 H 0.0 **** 0.06
21561 C 97.93624548354609 96.54113036913682 68.91707791545636 C 0.0 **** -0.24
21562 H 97.66029510906134 97.42631407515907 69.4908010250544 H 0.0 **** 0.06
21563 H 98.9581351164897 96.25306375491107 69.16283011175648 H 0.0 **** 0.06
21564 H 97.86721580855675 96.76366130331695 67.85243814928717 H 0.0 **** 0.06
21565 H 97.25824158643564 95.72411494754095 69.16317639621889 H 0.0 **** 0.06
21566 C 70.59005511720773 108.27207902728057 62.88266815425155 C 0.0 **** -0.24
21567 H 71.44337421998742 108.20010604422973 62.20878661722887 H 0.0 **** 0.06
21568 H 70.00584629240214 109.1587227788856 62.63630891730102 H 0.0 **** 0.06
21569 H 70.94459036846874 108.3443035626778 63.91065809221732 H 0.0 **** 0.06
21570 H 69.966321639418 107.3841610247643 62.775891856538095 H 0.0 **** 0.06
21571 C 59.41671057754227 13.890951743882994 80.11751249673404 C 0.0 **** -0.24
21572 H 58.45338462227341 13.904083521079059 80.62710607130208 H 0.0 **** 0.06
21573 H 59.32594186612963 14.394823468509372 79.15500311111572 H 0.0 **** 0.06
21574 H 59.729196267941624 12.858289708575228 79.95855700230192 H 0.0 **** 0.06
21575 H 60.15890128360598 14.404627859471674 80.72806776344629 H 0.0 **** 0.06
21576 C 42.61790186634971 67.94521084216595 24.59782413538551 C 0.0 **** -0.24
21577 H 43.10749681100009 68.91735648932988 24.660845030898514 H 0.0 **** 0.06
21578 H 43.3734382740397 67.1611113429664 24.556031359011712 H 0.0 **** 0.06
21579 H 42.00365267343824 67.90734262345765 23.69816759359054 H 0.0 **** 0.06
21580 H 41.98755507386636 67.79837012528097 25.474647189385422 H 0.0 **** 0.06
21581 C 18.422209047700544 19.378350353009466 114.15492052248649 C 0.0 **** -0.24
21582 H 18.259364421570396 18.575774898941972 113.43584179846552 H 0.0 **** 0.06
21583 H 19.40573640077774 19.820340543050293 113.98838008508949 H 0.0 **** 0.06
21584 H 18.37098282054332 18.975417527130787 115.16642434240693 H 0.0 **** 0.06
21585 H 17.654405697750047 20.141366901355212 114.02802800294626 H 0.0 **** 0.06
21586 C 30.24588305274144 56.49741248425181 94.71066716717561 C 0.0 **** -0.24
21587 H 30.250611762663475 57.21303492878752 95.53259362261275 H 0.0 **** 0.06
21588 H 30.592914070489115 56.98837985060135 93.80069377959771 H 0.0 **** 0.06
21589 H 29.2323546991664 56.12588339099881 94.55905785438176 H 0.0 **** 0.06
21590 H 30.906606046250197 55.66453129076575 94.95071923490812 H 0.0 **** 0.06
21591 C 18.26497017577512 112.84465978289327 54.20556422047781 C 0.0 **** -0.24
21592 H 18.784434901322754 111.93074170326219 53.91630802604027 H 0.0 **** 0.06
21593 H 18.41742108174978 113.60644570528213 53.44035643626876 H 0.0 **** 0.06
21594 H 18.660919089030415 113.2007155863135 55.1568405788596 H 0.0 **** 0.06
21595 H 17.199360656914422 112.6398253576304 54.30904456565236 H 0.0 **** 0.06
21596 C 110.0801197548339 38.87920681259436 49.18179054548986 C 0.0 **** -0.24
21597 H 109.23398327173743 39.56602154185012 49.18546751556258 H 0.0 **** 0.06
21598 H 110.70268322717533 39.064376590633316 50.05787268570012 H 0.0 **** 0.06
21599 H 110.66974363256753 39.03419816808605 48.27831707131075 H 0.0 **** 0.06
21600 H 109.71479536676196 37.852229772425346 49.204817679393415 H 0.0 **** 0.06
21601 C 53.61317870611785 103.9007125890509 90.58558620743824 C 0.0 **** -0.24
21602 H 52.56713633140342 103.60036601637674 90.64818225463287 H 0.0 **** 0.06
21603 H 53.747968567571775 104.57154204067206 89.73727819249993 H 0.0 **** 0.06
21604 H 54.23722300418933 103.01728381268413 90.45412434340656 H 0.0 **** 0.06
21605 H 53.898822317517585 104.41402188537319 91.5039517557993 H 0.0 **** 0.06
21606 C 32.008249168087076 89.78560026502993 29.886302855805553 C 0.0 **** -0.24
21607 H 31.21541070404723 89.06756689533464 29.673880436943676 H 0.0 **** 0.06
21608 H 31.67369252212066 90.78649003758096 29.61649665438722 H 0.0 **** 0.06
21609 H 32.894010346464256 89.52850759229179 29.30456793781252 H 0.0 **** 0.06
21610 H 32.249510298652865 89.75627456470906 30.948223265476628 H 0.0 **** 0.06
21611 C 57.442585455536886 71.30364361963848 24.50287079167225 C 0.0 **** -0.24
21612 H 57.91907250864517 71.34949872252781 23.52303079022971 H 0.0 **** 0.06
21613 H 56.36154505326675 71.24185627780957 24.378726016141457 H 0.0 **** 0.06
21614 H 57.69303884473209 72.2002689902086 25.06990784102169 H 0.0 **** 0.06
21615 H 57.79857522118263 70.4237841719289 25.038961842073206 H 0.0 **** 0.06
21616 C 54.465725117867116 55.64336866805619 14.927155210764369 C 0.0 **** -0.24
21617 H 55.26414911976375 56.378644357739965 14.834286166918943 H 0.0 **** 0.06
21618 H 54.89692770386513 54.66065022413553 15.122134304822382 H 0.0 **** 0.06
21619 H 53.89248483366328 55.61122980450593 13.999421000723402 H 0.0 **** 0.06
21620 H 53.80825293125564 55.92214578348935 15.750997819444336 H 0.0 **** 0.06
21621 C 62.08718160407253 39.643496016671975 99.97014959175377 C 0.0 **** -0.24
21622 H 63.115111335298714 40.00116480665814 100.00852080257147 H 0.0 **** 0.06
21623 H 61.42338901515914 40.47104438482174 99.71902196104986 H 0.0 **** 0.06
21624 H 61.80770342347285 39.23575727489451 100.94203388406265 H 0.0 **** 0.06
21625 H 62.00160690512492 38.86552144054696 99.2119784674189 H 0.0 **** 0.06
21626 C 66.04354112893853 65.18752745734207 67.26344158932554 C 0.0 **** -0.24
21627 H 65.0267795850655 65.49258612749074 67.01669857462184 H 0.0 **** 0.06
21628 H 66.43107262923846 65.82358791186161 68.05898440590639 H 0.0 **** 0.06
21629 H 66.67504078975017 65.28452227931652 66.3798114628616 H 0.0 **** 0.06
21630 H 66.04078234703303 64.14959898910962 67.59499671098152 H 0.0 **** 0.06
21631 C 47.95435459412295 8.343683445342172 55.215732510979535 C 0.0 **** -0.24
21632 H 47.93663113196931 8.963016890031092 54.318913168778465 H 0.0 **** 0.06
21633 H 47.02182145660703 7.782800396463244 55.28758090531204 H 0.0 **** 0.06
21634 H 48.06529388222941 8.979681496432661 56.093456195431514 H 0.0 **** 0.06
21635 H 48.792372964034996 7.649847768402239 55.160995432726395 H 0.0 **** 0.06
21636 C 37.55360945907188 114.1950904584786 60.87668908253794 C 0.0 **** -0.24
21637 H 37.29595526341916 114.07877974833013 59.82399534833997 H 0.0 **** 0.06
21638 H 38.63241981649725 114.31770828891149 60.97511200596416 H 0.0 **** 0.06
21639 H 37.23695033530862 113.30835483795235 61.427381378174324 H 0.0 **** 0.06
21640 H 37.04906273252908 115.07244355273815 61.27953275783225 H 0.0 **** 0.06
21641 C 101.73208319961833 43.517445770660515 18.70238372964867 C 0.0 **** -0.24
21642 H 102.11475883702278 44.00559440724042 17.80572422530622 H 0.0 **** 0.06
21643 H 102.19233494536911 42.53411849416972 18.804098141622465 H 0.0 **** 0.06
21644 H 100.6504330230699 43.406386358583404 18.62178156956103 H 0.0 **** 0.06
21645 H 101.97135966494983 44.12297312938952 19.576145318453754 H 0.0 **** 0.06
21646 C 79.00971512616638 110.93753974909396 46.913774435726246 C 0.0 **** -0.24
21647 H 79.04209432950054 110.87571067786575 45.826008965340726 H 0.0 **** 0.06
21648 H 80.02214975811981 110.87949558765085 47.31189487781338 H 0.0 **** 0.06
21649 H 78.41671588264822 110.11046074566232 47.30620057862159 H 0.0 **** 0.06
21650 H 78.5553231172369 111.88325899480054 47.210078346859774 H 0.0 **** 0.06
21651 C 87.78896897669014 34.67890720490044 56.92160282563314 C 0.0 **** -0.24
21652 H 88.87265942899379 34.59437449042605 57.00664532904327 H 0.0 **** 0.06
21653 H 87.48151569906943 35.68988102161268 57.18813492902584 H 0.0 **** 0.06
21654 H 87.31580115321404 33.96577785256642 57.596932912859266 H 0.0 **** 0.06
21655 H 87.48665738314529 34.464103123432665 55.8971879653896 H 0.0 **** 0.06
21656 C 86.25172799845103 113.16095322420264 37.772220120316604 C 0.0 **** -0.24
21657 H 87.05595804756771 113.80467222388866 38.1288401653041 H 0.0 **** 0.06
21658 H 86.45257249640511 112.13085714281296 38.06835113130404 H 0.0 **** 0.06
21659 H 86.19191926585094 113.22270721282344 36.68554476195794 H 0.0 **** 0.06
21660 H 85.30611854217707 113.48676461219638 38.20682997475217 H 0.0 **** 0.06
21661 C 8.5015822173049 16.42737831268741 14.247518309657707 C 0.0 **** -0.24
21662 H 8.716818432030976 15.772259367288356 15.0917419242314 H 0.0 **** 0.06
21663 H 9.260818080228745 16.2873180452944 13.477134590283498 H 0.0 **** 0.06
21664 H 8.509905127727563 17.465057120869446 14.582136639858177 H 0.0 **** 0.06
21665 H 7.521068113582459 16.18474890682755 13.839943862580185 H 0.0 **** 0.06
21666 C 78.47216775071249 9.662139947381572 70.13258560429483 C 0.0 **** -0.24
21667 H 79.14115963134725 10.44524062025987 70.48704585381628 H 0.0 **** 0.06
21668 H 77.65067348314875 9.53883525854027 70.83941244151532 H 0.0 **** 0.06
21669 H 79.02217528558958 8.72527197713245 70.04659109600539 H 0.0 **** 0.06
21670 H 78.07247055180699 9.939622176549584 69.15745704890873 H 0.0 **** 0.06
21671 C 19.45082431424953 22.44366809908442 62.316320205972296 C 0.0 **** -0.24
21672 H 19.84246540001527 21.612307831559576 62.90137512394474 H 0.0 **** 0.06
21673 H 19.89354635739761 23.375693028112238 62.668686112350706 H 0.0 **** 0.06
21674 H 18.368130049708157 22.48940556517013 62.4291435979904 H 0.0 **** 0.06
21675 H 19.700306315773275 22.29694022939455 61.265321326849666 H 0.0 **** 0.06
21676 C 45.999783342766385 46.30688497093931 21.645712013590526 C 0.0 **** -0.24
21677 H 46.52596227829122 45.354265272417535 21.715213564392855 H 0.0 **** 0.06
21678 H 45.07971827694249 46.172967382947405 21.077556867264974 H 0.0 **** 0.06
21679 H 46.63503899893655 47.03592767105687 21.142778666372976 H 0.0 **** 0.06
21680 H 45.76061135817593 46.66396850651566 22.64734521423287 H 0.0 **** 0.06
21681 C 25.197254515715002 39.35889861383484 74.50148414701059 C 0.0 **** -0.24
21682 H 25.244025912994914 39.09197129418092 75.55685240388834 H 0.0 **** 0.06
21683 H 26.08941076635827 38.99098188123202 73.99401541909228 H 0.0 **** 0.06
21684 H 25.142581784216844 40.44269091632023 74.40261524261257 H 0.0 **** 0.06
21685 H 24.311854899489163 38.908416820571745 74.05129671720314 H 0.0 **** 0.06
21686 C 55.0374415064648 30.948579522127474 115.39385328606977 C 0.0 **** -0.24
21687 H 54.94166077407789 30.5685955916002 114.37638276066224 H 0.0 **** 0.06
21688 H 55.48307530635742 31.943144558090694 115.36913718089895 H 0.0 **** 0.06
21689 H 55.67492853961812 30.279186076662924 115.97187464473384 H 0.0 **** 0.06
21690 H 54.0524286296436 31.001834936729395 115.85553645703462 H 0.0 **** 0.06
21691 C 27.840125001787186 10.242801642893554 11.872490166330763 C 0.0 **** -0.24
21692 H 28.007581503199333 11.2471933780148 11.48332241450261 H 0.0 **** 0.06
21693 H 28.489887478524295 10.073132048962464 12.730840268086638 H 0.0 **** 0.06
21694 H 28.06267492593618 9.510464123368479 11.09682643821425 H 0.0 **** 0.06
21695 H 26.79826980738531 10.142504232408612 12.178431676762187 H 0.0 **** 0.06
21696 C 106.95329527314146 72.571959782575 15.93282738248763 C 0.0 **** -0.24
21697 H 106.41005109245475 72.05514540023017 15.14255430265564 H 0.0 **** 0.06
21698 H 107.04407537128475 71.9170874176886 16.79951598470298 H 0.0 **** 0.06
21699 H 106.41240127622635 73.47581215365659 16.214258682192877 H 0.0 **** 0.06
21700 H 107.9472901192348 72.83982319918357 15.57421001322048 H 0.0 **** 0.06
21701 C 42.448355773980964 5.610820979439083 111.97383635457913 C 0.0 **** -0.24
21702 H 42.35414888282943 5.165558012656371 110.98405059881333 H 0.0 **** 0.06
21703 H 43.225362680331955 6.375279691029258 111.95523170141166 H 0.0 **** 0.06
21704 H 42.71487571153741 4.839874319216699 112.69585522830124 H 0.0 **** 0.06
21705 H 41.49900121732912 6.06425895610794 112.25981699204749 H 0.0 **** 0.06
21706 C 107.08158577622228 82.96077933612511 8.62853994945155 C 0.0 **** -0.24
21707 H 107.37796836709961 82.39055844368269 7.747833704436857 H 0.0 **** 0.06
21708 H 107.97059156843835 83.24802908185598 9.191413240034947 H 0.0 **** 0.06
21709 H 106.43487883291493 82.3487327045072 9.257847552609832 H 0.0 **** 0.06
21710 H 106.54379713786457 83.85622336560422 8.316919445941693 H 0.0 **** 0.06
21711 C 29.06827727389603 20.03939068572743 94.86768505062983 C 0.0 **** -0.24
21712 H 28.97333237672595 20.45600051539496 93.86520380424435 H 0.0 **** 0.06
21713 H 28.660658471459953 19.028055993637942 94.88095445998192 H 0.0 **** 0.06
21714 H 28.518400091420432 20.662293245511062 95.57259029377124 H 0.0 **** 0.06
21715 H 30.120043811696064 20.01137644938679 95.1512715068028 H 0.0 **** 0.06
21716 C 95.8566472615849 4.090552088511373 40.16650624631765 C 0.0 **** -0.24
21717 H 95.65415221824819 3.201305947030562 40.764659325877716 H 0.0 **** 0.06
21718 H 95.2556138996537 4.0603146293310175 39.256774606872995 H 0.0 **** 0.06
21719 H 96.91443802414523 4.11744320650935 39.904030417011796 H 0.0 **** 0.06
21720 H 95.60167184261047 4.980636248966732 40.74204400504681 H 0.0 **** 0.06
21721 C 4.484487498603343 87.11375211696472 12.379593476088814 C 0.0 **** -0.24
21722 H 3.457112985014774 87.21640169520626 12.730560287419053 H 0.0 **** 0.06
21723 H 5.137799909715682 86.89901793039192 13.225684563533378 H 0.0 **** 0.06
21724 H 4.799260953316576 88.04178773676117 11.90249650769357 H 0.0 **** 0.06
21725 H 4.5417783461873995 86.29739970647668 11.658711696363639 H 0.0 **** 0.06
21726 C 1.1460133885328787 92.48553046903638 41.2025198049661 C 0.0 **** -0.24
21727 H 1.6038185510122673 93.24182480475866 40.564500755761145 H 0.0 **** 0.06
21728 H 1.776706638132481 91.59633903795606 41.22169347811442 H 0.0 **** 0.06
21729 H 0.16347839363919547 92.22619829197316 40.80949218154626 H 0.0 **** 0.06
21730 H 1.040967282553737 92.87959969511718 42.21306109164257 H 0.0 **** 0.06
21731 C 110.9494855772009 55.656491686277434 91.89311875074068 C 0.0 **** -0.24
21732 H 111.79758110215619 56.30848171291035 91.68603446599755 H 0.0 **** 0.06
21733 H 110.90082218094068 54.87243569110319 91.13800154805037 H 0.0 **** 0.06
21734 H 110.028908129956 56.240646503298876 91.8714775746576 H 0.0 **** 0.06
21735 H 111.06979328839151 55.205887595785896 92.8784085486243 H 0.0 **** 0.06
21736 C 3.127235715256541 19.713270230308233 39.09208334816691 C 0.0 **** -0.24
21737 H 3.8599446861696425 19.74054087375104 38.28522160538631 H 0.0 **** 0.06
21738 H 3.2659371746820565 20.58071135864874 39.73804836985482 H 0.0 **** 0.06
21739 H 3.262132814647382 18.80123113446674 39.67336676778865 H 0.0 **** 0.06
21740 H 2.122589900597136 19.73038708498701 38.67021519902556 H 0.0 **** 0.06
21741 C 26.043438307823976 115.46540005061674 115.92403998544737 C 0.0 **** -0.24
21742 H 26.64456010555398 114.59739582502192 116.192286391826 H 0.0 **** 0.06
21743 H 25.879500602256712 115.47390488271776 114.84627280900561 H 0.0 **** 0.06
21744 H 26.56637095029265 116.37486157164959 116.21942980058962 H 0.0 **** 0.06
21745 H 25.08264203796739 115.41523029535405 116.43746724962972 H 0.0 **** 0.06
21746 C 90.67580446862883 88.81087763537079 50.122956258650476 C 0.0 **** -0.24
21747 H 91.50518434499654 88.62246785041452 50.80451456621097 H 0.0 **** 0.06
21748 H 91.05944794144523 89.2184486321845 49.187123159033405 H 0.0 **** 0.06
21749 H 89.98711109629215 89.52454259527349 50.57515060713632 H 0.0 **** 0.06
21750 H 90.15086495506401 87.8763562641488 49.923711917701496 H 0.0 **** 0.06
21751 C 66.74287352320528 14.40353025443136 20.404242285295823 C 0.0 **** -0.24
21752 H 65.83166987796767 13.805678039326875 20.370379984784904 H 0.0 **** 0.06
21753 H 67.45690922336411 13.94040782574234 21.0850841076101 H 0.0 **** 0.06
21754 H 66.50360327574617 15.407421108096578 20.75502835631545 H 0.0 **** 0.06
21755 H 67.17611488006645 14.46135060777781 19.405988476506764 H 0.0 **** 0.06
21756 C 95.23398230897953 53.19802512013577 47.371316825052105 C 0.0 **** -0.24
21757 H 95.57380371381589 53.42642738930947 46.359976171193864 H 0.0 **** 0.06
21758 H 94.15928775723637 53.367643456304805 47.439546017372976 H 0.0 **** 0.06
21759 H 95.74990450584892 53.84389239643101 48.08127433811964 H 0.0 **** 0.06
21760 H 95.45296870119023 52.15551877343537 47.60099357382012 H 0.0 **** 0.06
21761 C 21.804193657397263 58.2290261914546 75.37500949316055 C 0.0 **** -0.24
21762 H 21.247063293570818 57.29926000752493 75.48732836856556 H 0.0 **** 0.06
21763 H 22.793235928978334 58.012916282911355 74.9716475848418 H 0.0 **** 0.06
21764 H 21.90509305552439 58.71100861165443 76.34746526417177 H 0.0 **** 0.06
21765 H 21.27034604885523 58.89199428096514 74.69463094435739 H 0.0 **** 0.06
21766 C 41.75015514085078 84.76900606894557 33.44349269068164 C 0.0 **** -0.24
21767 H 42.49585233038681 85.55890216468336 33.353905748051034 H 0.0 **** 0.06
21768 H 41.19559171476135 84.8968432615344 34.37318943192153 H 0.0 **** 0.06
21769 H 42.24902476307972 83.79931997712075 33.44818432087567 H 0.0 **** 0.06
21770 H 41.06277063953735 84.8211777135331 32.60013835404118 H 0.0 **** 0.06
21771 C 38.72236466739111 86.08174132804442 88.85770570860942 C 0.0 **** -0.24
21772 H 37.77722189636148 85.62343692908988 89.14814186623505 H 0.0 **** 0.06
21773 H 39.28592857803208 85.38786038259627 88.23435597483737 H 0.0 **** 0.06
21774 H 39.29944673774738 86.31926772433019 89.75186929030568 H 0.0 **** 0.06
21775 H 38.526251991427735 86.99637586383892 88.29807685369667 H 0.0 **** 0.06
21776 C 47.31414155926848 61.43371069696687 13.386355823058011 C 0.0 **** -0.24
21777 H 47.27100406935918 61.905755523211326 12.404748563387784 H 0.0 **** 0.06
21778 H 47.30837516148094 62.20314303702958 14.159013343258351 H 0.0 **** 0.06
21779 H 48.22681333750478 60.84351697863437 13.465283207261308 H 0.0 **** 0.06
21780 H 46.448287595139675 60.784173281393834 13.514011657147222 H 0.0 **** 0.06
21781 C 27.19402600053118 108.4683276047527 61.37208209659633 C 0.0 **** -0.24
21782 H 27.828917540975368 107.99797624273307 62.12400389197117 H 0.0 **** 0.06
21783 H 26.643220092914987 109.29209191442676 61.82613956197633 H 0.0 **** 0.06
21784 H 26.49119268235853 107.73317753990048 60.98017053870507 H 0.0 **** 0.06
21785 H 27.813371362972333 108.8476683431979 60.56022816642022 H 0.0 **** 0.06
21786 C 10.279473369895243 115.45230782768675 45.66286373690883 C 0.0 **** -0.24
21787 H 10.697962832877295 114.81723807106783 46.44350188855924 H 0.0 **** 0.06
21788 H 11.072212584468929 115.7550888553274 44.977527140281495 H 0.0 **** 0.06
21789 H 9.833059506931562 116.33694766398179 46.11585924328449 H 0.0 **** 0.06
21790 H 9.516868799979505 114.89896572341125 45.114931492997556 H 0.0 **** 0.06
21791 C 7.653555891391861 0.6306328549311733 66.52312112384845 C 0.0 **** -0.24
21792 H 8.426786469895195 0.6925740634431232 65.75792789692005 H 0.0 **** 0.06
21793 H 7.758250446959249 1.4690753572149955 67.21229616147755 H 0.0 **** 0.06
21794 H 7.759481326486455 -0.30627045057429747 67.07121513020044 H 0.0 **** 0.06
21795 H 6.671653874424342 0.6666304710555035 66.05243492220612 H 0.0 **** 0.06
21796 C 83.44301113070173 107.34526838550556 10.651722438229655 C 0.0 **** -0.24
21797 H 82.70974569688542 107.9771567982906 11.15355990518362 H 0.0 **** 0.06
21798 H 83.67911113640372 107.76763150763287 9.675668612403488 H 0.0 **** 0.06
21799 H 83.03177211282849 106.34344509110824 10.525775811128511 H 0.0 **** 0.06
21800 H 84.34937349010278 107.29210724543836 11.25493395718106 H 0.0 **** 0.06
21801 C 22.289634137007507 104.2879550762963 56.70603525188636 C 0.0 **** -0.24
21802 H 22.967668830955656 104.24726065558605 57.55862888008153 H 0.0 **** 0.06
21803 H 22.07618751480813 103.27521218698368 56.363066758560365 H 0.0 **** 0.06
21804 H 22.753307295490757 104.85463990812332 55.899181229919236 H 0.0 **** 0.06
21805 H 21.361029263588033 104.774260739939 57.00456120575768 H 0.0 **** 0.06
21806 C 70.28190558695124 20.8171933732353 64.13646819368807 C 0.0 **** -0.24
21807 H 71.20530147837516 20.485970883274362 63.662233434713244 H 0.0 **** 0.06
21808 H 69.48892328464876 20.868560669450417 63.39090572873977 H 0.0 **** 0.06
21809 H 70.43233592067335 21.80391112768754 64.57509193193937 H 0.0 **** 0.06
21810 H 70.00110878528815 20.11126989575577 64.91798220885539 H 0.0 **** 0.06
21811 C 101.6696685741675 51.133522236399074 75.91144380179111 C 0.0 **** -0.24
21812 H 100.92755278886591 51.53728518050306 75.22128822081476 H 0.0 **** 0.06
21813 H 101.18298847372424 50.85517967231843 76.84663090009252 H 0.0 **** 0.06
21814 H 102.43054174805783 51.88884485737859 76.10750426146964 H 0.0 **** 0.06
21815 H 102.13601821533831 50.25358300375265 75.46772885213196 H 0.0 **** 0.06
21816 C 19.404471841430222 80.43660208070884 33.823873654383334 C 0.0 **** -0.24
21817 H 19.452590639353275 80.69725270437152 32.76620648270179 H 0.0 **** 0.06
21818 H 19.124718023527677 79.38844735582558 33.927205200005375 H 0.0 **** 0.06
21819 H 18.661907102017437 81.06285684575411 34.318557952050725 H 0.0 **** 0.06
21820 H 20.38053014344294 80.59916741905141 34.28157191337729 H 0.0 **** 0.06
21821 C 86.33515593093665 52.13046662048366 16.81077391026338 C 0.0 **** -0.24
21822 H 87.4181035963444 52.1342144472815 16.69187813758424 H 0.0 **** 0.06
21823 H 85.9322005054824 53.09388181455771 16.496111967126637 H 0.0 **** 0.06
21824 H 86.08405615822363 51.956176980651975 17.85685754391949 H 0.0 **** 0.06
21825 H 85.90503703300863 51.3387489288554 16.19677811487628 H 0.0 **** 0.06
21826 C 9.274766128458339 42.686257342238775 52.36349925575166 C 0.0 **** -0.24
21827 H 8.368539671859537 42.19446753117069 52.71814612431649 H 0.0 **** 0.06
21828 H 10.08842484905773 41.96234010160953 52.32089327813236 H 0.0 **** 0.06
21829 H 9.53987942548008 43.493043894965865 53.04638748225017 H 0.0 **** 0.06
21830 H 9.099859488251298 43.09558761855118 51.36806246133102 H 0.0 **** 0.06
21831 C 48.89315678469302 49.43392351241778 90.57488253367748 C 0.0 **** -0.24
21832 H 49.287807608659136 48.439819482803074 90.78355174026672 H 0.0 **** 0.06
21833 H 48.940759643917005 50.04151536124425 91.47931393260717 H 0.0 **** 0.06
21834 H 47.85706921985883 49.35273025944758 90.24552982833828 H 0.0 **** 0.06
21835 H 49.4880722029521 49.903472751132526 89.79047816409027 H 0.0 **** 0.06
21836 C 96.93235413385071 6.7577979629433145 106.4855293056782 C 0.0 **** -0.24
21837 H 97.21213492437232 6.247227245894194 105.56310461090402 H 0.0 **** 0.06
21838 H 97.3639971158853 7.7584512502442635 106.49195382853677 H 0.0 **** 0.06
21839 H 97.30631173224876 6.194050913203299 107.33930612428142 H 0.0 **** 0.06
21840 H 95.84609759654288 6.82938049299355 106.54416091633652 H 0.0 **** 0.06
21841 C 64.03071311914101 112.13042845255305 77.17732827336175 C 0.0 **** -0.24
21842 H 64.92976000327704 111.52462601194901 77.29310867882279 H 0.0 **** 0.06
21843 H 63.648118490671806 112.40415953793617 78.16158368859584 H 0.0 **** 0.06
21844 H 63.27497100122622 111.55845966542583 76.63949605842026 H 0.0 **** 0.06
21845 H 64.27177894548322 113.03279494008642 76.6165548058867 H 0.0 **** 0.06
21846 C 2.9059568350410814 60.58953630559049 39.120817228904514 C 0.0 **** -0.24
21847 H 3.091120015357035 59.56736143195257 39.44881571792325 H 0.0 **** 0.06
21848 H 3.6406157307533817 60.8678939422034 38.364043548426636 H 0.0 **** 0.06
21849 H 2.9886668765510933 61.26522644965957 39.97249080538275 H 0.0 **** 0.06
21850 H 1.9038984350443116 60.658986858557206 38.69776340453815 H 0.0 **** 0.06
21851 C 53.815722501568644 28.284339266749583 32.032618959438764 C 0.0 **** -0.24
21852 H 54.30010668064125 29.085151409619897 32.59135131451205 H 0.0 **** 0.06
21853 H 53.84961535130182 27.362852542388026 32.61454980144089 H 0.0 **** 0.06
21854 H 54.335076680602924 28.135726582005333 31.086570124730713 H 0.0 **** 0.06
21855 H 52.777028041907215 28.55305578887871 31.838742067632893 H 0.0 **** 0.06
21856 C 86.02857781889855 39.93521669403003 113.92982177286027 C 0.0 **** -0.24
21857 H 85.30474612524779 39.1699915256505 114.21062081236647 H 0.0 **** 0.06
21858 H 86.95530446348906 39.77819383952806 114.48325434437294 H 0.0 **** 0.06
21859 H 85.62652360569297 40.920824223497874 114.16641473037404 H 0.0 **** 0.06
21860 H 86.22793353800583 39.871803296448476 112.86039671015837 H 0.0 **** 0.06
21861 C 76.1899010075426 46.04179028755334 78.59206799662843 C 0.0 **** -0.24
21862 H 76.7981689152916 46.92636080690474 78.7768814901583 H 0.0 **** 0.06
21863 H 76.46244591299146 45.609323276007956 77.6288392685145 H 0.0 **** 0.06
21864 H 75.1365339545114 46.322429903746865 78.57933041697103 H 0.0 **** 0.06
21865 H 76.36176016797191 45.31031263176283 79.38151325557556 H 0.0 **** 0.06
21866 C 101.40960663019686 40.65624695635867 82.33666083314247 C 0.0 **** -0.24
21867 H 100.61022394666529 40.12157110620265 81.82303542430273 H 0.0 **** 0.06
21868 H 100.99173437976026 41.51065228512019 82.86807519062762 H 0.0 **** 0.06
21869 H 102.14035110519109 41.004490612522034 81.6065801227216 H 0.0 **** 0.06
21870 H 101.89621097514828 39.988341987824725 83.04695590490982 H 0.0 **** 0.06
21871 C 0.10687793284870395 96.3152532154015 41.220226749292294 C 0.0 **** -0.24
21872 H 0.6356715524505034 95.46134635648204 40.79812926967455 H 0.0 **** 0.06
21873 H 0.8249664846390488 97.09193511633737 41.48537781002835 H 0.0 **** 0.06
21874 H -0.43471984368380845 96.0015539606876 42.112535878758194 H 0.0 **** 0.06
21875 H -0.5973989112335403 96.70643269584198 40.48582309861763 H 0.0 **** 0.06
21876 C 112.26663185634555 34.63879406869961 82.97246853336381 C 0.0 **** -0.24
21877 H 111.39966627702995 34.162505369355856 82.51343608612007 H 0.0 **** 0.06
21878 H 112.07687640667473 35.707231467141256 83.08390671994414 H 0.0 **** 0.06
21879 H 113.14113965457129 34.48913029599899 82.33857431309642 H 0.0 **** 0.06
21880 H 112.44771922285959 34.19741189034907 83.95237061374863 H 0.0 **** 0.06
21881 C 64.63948442232163 78.50643194065401 37.017229615058596 C 0.0 **** -0.24
21882 H 65.44671762878409 77.86212065404521 36.66945604107016 H 0.0 **** 0.06
21883 H 64.3705316269232 78.23290858534966 38.038093662595145 H 0.0 **** 0.06
21884 H 63.771546062555615 78.38401410498216 36.367983943293325 H 0.0 **** 0.06
21885 H 64.96772357069722 79.54499093521378 36.99303925412562 H 0.0 **** 0.06
21886 C 23.95409948693011 19.918656213114986 77.99003747346251 C 0.0 **** -0.24
21887 H 24.411819389418227 20.80940556987963 78.41850444774082 H 0.0 **** 0.06
21888 H 22.94398914218217 19.803961853301274 78.38406449950307 H 0.0 **** 0.06
21889 H 24.547774409299578 19.042799330024394 78.25161684221598 H 0.0 **** 0.06
21890 H 23.91255003754908 20.017792622835827 76.90526625736425 H 0.0 **** 0.06
21891 C 92.73119789291525 31.068098455091665 4.298281329092315 C 0.0 **** -0.24
21892 H 91.86684074312319 30.982738533894583 3.6412590697968383 H 0.0 **** 0.06
21893 H 93.6411844458539 30.878140457907392 3.728416920099244 H 0.0 **** 0.06
21894 H 92.64902990399182 30.339167157424505 5.105075976343533 H 0.0 **** 0.06
21895 H 92.76902425013014 32.07279608553775 4.719441406027686 H 0.0 **** 0.06
21896 C 91.24038199037699 28.929025220537596 98.37509949876602 C 0.0 **** -0.24
21897 H 90.22260155750769 28.79097333120943 98.00916552304972 H 0.0 **** 0.06
21898 H 91.83522251108906 28.04833904502101 98.13272048650137 H 0.0 **** 0.06
21899 H 91.22107519788273 29.0692929051701 99.45571190404544 H 0.0 **** 0.06
21900 H 91.67947035339427 29.80759788914321 97.902677624506 H 0.0 **** 0.06
21901 C 65.36655367589191 41.004896843146184 106.02145434828276 C 0.0 **** -0.24
21902 H 65.02817047925942 40.18170230092096 105.39121106501679 H 0.0 **** 0.06
21903 H 65.86348054293524 41.75257596634094 105.40381161616341 H 0.0 **** 0.06
21904 H 66.0649189041361 40.6262429956123 106.76743236836009 H 0.0 **** 0.06
21905 H 64.5095228472178 41.45534981372646 106.52108739739836 H 0.0 **** 0.06
21906 C 83.65427299520061 2.513623213049158 23.739525395498788 C 0.0 **** -0.24
21907 H 82.75086675091475 2.0412017389906367 24.125303928684275 H 0.0 **** 0.06
21908 H 83.83977707167287 2.1657892873516573 22.72307530315868 H 0.0 **** 0.06
21909 H 84.50112442570332 2.2506026918156294 24.37386431229436 H 0.0 **** 0.06
21910 H 83.52552155445204 3.595641548076486 23.736474041207885 H 0.0 **** 0.06
21911 C 95.92632366868315 77.77988378261048 83.33953974994364 C 0.0 **** -0.24
21912 H 95.07765702905843 78.45880653697003 83.26042113838633 H 0.0 **** 0.06
21913 H 96.85229400995902 78.35589503129364 83.34753985917962 H 0.0 **** 0.06
21914 H 95.92808343793462 77.09937848204552 82.48807136908277 H 0.0 **** 0.06
21915 H 95.84648778833528 77.20622241207931 84.26302924125383 H 0.0 **** 0.06
21916 C 48.22409608800601 10.853114557752122 60.51622958208193 C 0.0 **** -0.24
21917 H 48.68966619361112 11.731911800707536 60.07041591060504 H 0.0 **** 0.06
21918 H 48.12520639086324 11.001354162270644 61.591863743824455 H 0.0 **** 0.06
21919 H 48.84517420471582 9.977957831264376 60.32519910310317 H 0.0 **** 0.06
21920 H 47.238228836501264 10.701463226838257 60.07804864486011 H 0.0 **** 0.06
21921 C 88.97151384387948 18.75014238602395 34.95139818645788 C 0.0 **** -0.24
21922 H 88.88618771615782 17.914075580860576 34.257426499800964 H 0.0 **** 0.06
21923 H 88.46904563962153 19.621829201661548 34.53188564067668 H 0.0 **** 0.06
21924 H 90.02397360252476 18.98061636063757 35.115435210487064 H 0.0 **** 0.06
21925 H 88.50544087248244 18.48329772663032 35.90017050223404 H 0.0 **** 0.06
21926 C 116.61683118121995 48.08075624205958 21.714453221217894 C 0.0 **** -0.24
21927 H 117.00530770683325 47.433294478666994 20.927660821133998 H 0.0 **** 0.06
21928 H 115.73962966439109 47.617397503812185 22.16621771058405 H 0.0 **** 0.06
21929 H 116.34039488735758 49.04427615509138 21.28680115115614 H 0.0 **** 0.06
21930 H 117.38412372603439 48.22713581392571 22.475233206590502 H 0.0 **** 0.06
21931 C 92.33976316284961 18.353414574854725 41.15006388472 C 0.0 **** -0.24
21932 H 92.62471134545365 17.57174650527017 40.44481455782028 H 0.0 **** 0.06
21933 H 92.79533975367019 18.150482045147953 42.11966502303147 H 0.0 **** 0.06
21934 H 91.25471827353275 18.370260141959392 41.25410618083387 H 0.0 **** 0.06
21935 H 92.68436426753533 19.319049277383925 40.78096413336874 H 0.0 **** 0.06
21936 C 43.742955832516685 37.12140851571684 62.133701158571284 C 0.0 **** -0.24
21937 H 44.53630521988359 36.45634366565338 62.47477073592364 H 0.0 **** 0.06
21938 H 44.091802439456586 37.689158163037376 61.27044371463762 H 0.0 **** 0.06
21939 H 43.47431256364109 37.80826194845116 62.93550540354681 H 0.0 **** 0.06
21940 H 42.8706721132674 36.53157816139654 61.85226693064067 H 0.0 **** 0.06
21941 C 41.475058276490984 19.622529952084363 31.394750728701126 C 0.0 **** -0.24
21942 H 40.5773252599364 20.207143501731565 31.192420738974533 H 0.0 **** 0.06
21943 H 42.257365363255815 19.901224856760976 30.687910006306254 H 0.0 **** 0.06
21944 H 41.24851010460685 18.561736707517102 31.28706326794186 H 0.0 **** 0.06
21945 H 41.8164476762239 19.81935071556891 32.41114280056932 H 0.0 **** 0.06
21946 C 38.4818045161596 65.2328908028637 85.70689762418272 C 0.0 **** -0.24
21947 H 38.08810617452987 66.03984454314443 85.08995583930366 H 0.0 **** 0.06
21948 H 39.23905504834062 65.62869579542792 86.38459377863717 H 0.0 **** 0.06
21949 H 38.92855279499145 64.47149957098017 85.06792555698081 H 0.0 **** 0.06
21950 H 37.67141045821742 64.79070490931278 86.28719420732827 H 0.0 **** 0.06
21951 C 80.13066432017106 108.1689608563922 78.13800023804376 C 0.0 **** -0.24
21952 H 80.99702063101495 107.51122101247037 78.06563294721983 H 0.0 **** 0.06
21953 H 79.42761098837056 107.93258110191033 77.34014905537578 H 0.0 **** 0.06
21954 H 80.45346592959541 109.2058997019964 78.04467328782664 H 0.0 **** 0.06
21955 H 79.64611190948008 108.02632057271495 79.10429507927395 H 0.0 **** 0.06
21956 C 40.535386348884344 43.43646514931538 35.23673345519791 C 0.0 **** -0.24
21957 H 40.66009604738164 43.73608669340763 36.27787103294676 H 0.0 **** 0.06
21958 H 41.5122052335978 43.223592195772966 34.8014726298002 H 0.0 **** 0.06
21959 H 40.05792221663759 44.243981768153986 34.68133908890218 H 0.0 **** 0.06
21960 H 39.91238439580661 42.54364079090473 35.18844093468678 H 0.0 **** 0.06
21961 C 2.733063546141409 18.325009126815843 33.75549609687087 C 0.0 **** -0.24
21962 H 3.546917904715656 18.812536618889993 33.21793489506277 H 0.0 **** 0.06
21963 H 1.7950494814423337 18.832659226451113 33.5306295621192 H 0.0 **** 0.06
21964 H 2.9260348418276863 18.372780391281907 34.827026743715095 H 0.0 **** 0.06
21965 H 2.665108558429381 17.28262198331379 33.444168088735864 H 0.0 **** 0.06
21966 C 35.355485621615685 53.393776662019974 109.6532033287887 C 0.0 **** -0.24
21967 H 35.71303652236992 53.46851202860917 108.62629391896199 H 0.0 **** 0.06
21968 H 34.43423796508779 53.96765848917811 109.75826248130083 H 0.0 **** 0.06
21969 H 36.11118177386946 53.791431518094214 110.3312726153326 H 0.0 **** 0.06
21970 H 35.16301232964861 52.348995143254506 109.89538616612077 H 0.0 **** 0.06
21971 C 66.75071742353589 22.40578672693627 28.431364045752616 C 0.0 **** -0.24
21972 H 66.61619409841168 22.549515805149355 27.359468822423423 H 0.0 **** 0.06
21973 H 66.6765454028581 23.367875438933908 28.939263488061897 H 0.0 **** 0.06
21974 H 67.73249625998062 21.970268701741787 28.618065277457163 H 0.0 **** 0.06
21975 H 65.97871388201139 21.734523625121 28.807278042891085 H 0.0 **** 0.06
21976 C 10.826432294890079 42.70822102399532 27.07778560600542 C 0.0 **** -0.24
21977 H 11.708431294522313 43.346605485242804 27.038403553941748 H 0.0 **** 0.06
21978 H 9.959428758240485 43.26564670400684 26.722257146429456 H 0.0 **** 0.06
21979 H 10.656710303118619 42.38629165708844 28.10461461765925 H 0.0 **** 0.06
21980 H 10.98184898867429 41.83480436379318 26.44472325878351 H 0.0 **** 0.06
21981 C 64.77554949995567 80.02792649268412 67.73557405016655 C 0.0 **** -0.24
21982 H 65.00773550901573 80.32633225723976 68.7582849908037 H 0.0 **** 0.06
21983 H 63.7266818966549 80.23724747510772 67.52540401715873 H 0.0 **** 0.06
21984 H 64.96440304308027 78.96034529826994 67.61827631405168 H 0.0 **** 0.06
21985 H 65.40420374981545 80.58556994284669 67.04266101282167 H 0.0 **** 0.06
21986 C 115.7564929275286 32.30023475814187 3.535774311550483 C 0.0 **** -0.24
21987 H 115.20149114587524 32.66092292025394 4.401716590330977 H 0.0 **** 0.06
21988 H 115.45873886936852 31.275406841120287 3.314889263588725 H 0.0 **** 0.06
21989 H 116.82431842943036 32.33076731419783 3.751809983179669 H 0.0 **** 0.06
21990 H 115.5411226457713 32.93532063550418 2.6766110427421097 H 0.0 **** 0.06
21991 C 38.448258837794654 112.82096260520709 38.084995622992324 C 0.0 **** -0.24
21992 H 37.92651657362952 111.94522867960596 37.70084332887268 H 0.0 **** 0.06
21993 H 39.47459390070072 112.55016076841109 38.336140533287676 H 0.0 **** 0.06
21994 H 37.93955770068323 113.18422301132607 38.9777805792732 H 0.0 **** 0.06
21995 H 38.453625252600425 113.6029645898841 37.32611023921953 H 0.0 **** 0.06
21996 C 58.425823365002266 63.19136384328766 27.890903768174866 C 0.0 **** -0.24
21997 H 58.89237552820524 63.56628315496823 26.9788233597246 H 0.0 **** 0.06
21998 H 57.38574884397658 63.515760866738674 27.925682104939796 H 0.0 **** 0.06
21999 H 58.95844684875936 63.58143340774075 28.757640097751704 H 0.0 **** 0.06
22000 H 58.46773520780075 62.101930754896784 27.8986460035961 H 0.0 **** 0.06
22001 C 4.462615244660526 74.19970234499974 17.832644925853742 C 0.0 **** -0.24
22002 H 4.1271252332504105 74.10679189922544 18.8659697129126 H 0.0 **** 0.06
22003 H 5.534249123488735 74.39473514857474 17.81518292209492 H 0.0 **** 0.06
22004 H 3.9347550055880163 75.02487495002447 17.35330811807276 H 0.0 **** 0.06
22005 H 4.251584125449995 73.27361902078854 17.297846353708792 H 0.0 **** 0.06
22006 C 108.73801997425463 111.30044231224993 54.71508366609445 C 0.0 **** -0.24
22007 H 107.94042534768363 110.63069991129322 55.035665726500135 H 0.0 **** 0.06
22008 H 109.69721627747533 110.78909156689666 54.799397745219444 H 0.0 **** 0.06
22009 H 108.74194833063339 112.18861240358609 55.346346193649936 H 0.0 **** 0.06
22010 H 108.57151472192629 111.59278716029968 53.67807957593651 H 0.0 **** 0.06
22011 C 25.50935902941734 46.308237242472785 50.4317503164624 C 0.0 **** -0.24
22012 H 24.957934767659836 45.68853089623241 49.723946423683515 H 0.0 **** 0.06
22013 H 26.559944245872032 46.3444215977309 50.14126892800181 H 0.0 **** 0.06
22014 H 25.422866365422834 45.881822622009736 51.43177163043407 H 0.0 **** 0.06
22015 H 25.09626817807259 47.31705087901133 50.4307629398337 H 0.0 **** 0.06
22016 C 11.915995233953083 98.09480807737194 11.701116878933561 C 0.0 **** -0.24
22017 H 11.254333593408006 98.1106432241493 10.835517640966202 H 0.0 **** 0.06
22018 H 11.620431416545784 98.87899245045332 12.398772179019886 H 0.0 **** 0.06
22019 H 12.942878606019804 98.26509242538393 11.377877434283675 H 0.0 **** 0.06
22020 H 11.846369387117988 97.12508449802286 12.193589584163618 H 0.0 **** 0.06
22021 C 113.68818870117796 14.70302551310698 32.389839564146946 C 0.0 **** -0.24
22022 H 114.37199277286993 14.382814010559457 33.175875532220275 H 0.0 **** 0.06
22023 H 113.79781146179688 14.04948659627587 31.524135961793178 H 0.0 **** 0.06
22024 H 113.92005198032146 15.72902220266775 32.103133776463594 H 0.0 **** 0.06
22025 H 112.66283454238092 14.651500635752939 32.75742773152694 H 0.0 **** 0.06
22026 C 42.697902786674135 75.99325790332799 26.647485824356636 C 0.0 **** -0.24
22027 H 42.70643779789882 75.9120056963817 25.56027644601579 H 0.0 **** 0.06
22028 H 42.72399133476195 77.0444283541085 26.93341762634043 H 0.0 **** 0.06
22029 H 43.570451184176825 75.48312688501915 27.056171072700806 H 0.0 **** 0.06
22030 H 41.7911354939662 75.53241775669983 27.038763702574954 H 0.0 **** 0.06
22031 C 10.98923885819346 114.76777026323884 97.76188952783332 C 0.0 **** -0.24
22032 H 11.880321232615103 115.04488613079036 97.19895619188011 H 0.0 **** 0.06
22033 H 10.169259635494626 114.57370741142287 97.07028366952977 H 0.0 **** 0.06
22034 H 10.714896340861543 115.58211370697921 98.4328850092719 H 0.0 **** 0.06
22035 H 11.192876798529255 113.86946135502583 98.34552615749351 H 0.0 **** 0.06
22036 C 109.06257315561905 17.798389654301047 58.088994247494405 C 0.0 **** -0.24
22037 H 108.71467575129023 17.83728749363246 59.120958531868645 H 0.0 **** 0.06
22038 H 108.78419562546355 18.719560734938625 57.5773686624668 H 0.0 **** 0.06
22039 H 108.60442280186584 16.948498555283777 57.583237059806386 H 0.0 **** 0.06
22040 H 110.14672915204841 17.688915650288493 58.07560949802512 H 0.0 **** 0.06
22041 C 70.68837932026548 86.40542436934015 94.77427965820232 C 0.0 **** -0.24
22042 H 71.17173275938535 86.26279983131528 95.74045646531513 H 0.0 **** 0.06
22043 H 70.54159670915647 87.47090666604797 94.59570659297287 H 0.0 **** 0.06
22044 H 69.7222525087218 85.90013093911733 94.77354843650005 H 0.0 **** 0.06
22045 H 71.31810954198716 85.98830871958566 93.98873696679709 H 0.0 **** 0.06
22046 C 47.53882503660073 61.23533614016446 47.40978645996114 C 0.0 **** -0.24
22047 H 46.92269824429232 60.63857283849268 48.082143720253015 H 0.0 **** 0.06
22048 H 48.0965850537005 60.573798997170684 46.745820781109614 H 0.0 **** 0.06
22049 H 48.236146694788374 61.837169608464365 47.99343104766257 H 0.0 **** 0.06
22050 H 46.90071991383417 61.890393887654454 46.817209776520684 H 0.0 **** 0.06
22051 C 105.48925473559822 16.748295101797908 26.97785906634323 C 0.0 **** -0.24
22052 H 106.25836677800115 16.158949958752032 26.479172890734162 H 0.0 **** 0.06
22053 H 104.50437135701782 16.39298154297012 26.67358285491457 H 0.0 **** 0.06
22054 H 105.59932258657403 17.79733866896055 26.701582617770725 H 0.0 **** 0.06
22055 H 105.59573406867798 16.644556700272233 28.05808798314854 H 0.0 **** 0.06
22056 C 18.336387447369752 86.12528142990215 0.9085343254637479 C 0.0 **** -0.24
22057 H 18.321384460183083 86.25958547879262 1.9905797751269887 H 0.0 **** 0.06
22058 H 17.52488537082195 85.45915124223515 0.6139940543362457 H 0.0 **** 0.06
22059 H 19.290218976676343 85.6907331851857 0.610111508578143 H 0.0 **** 0.06
22060 H 18.208438921657326 87.0910530553133 0.4205699262357001 H 0.0 **** 0.06
22061 C 20.35474914075712 14.7397274135852 21.839052765415246 C 0.0 **** -0.24
22062 H 21.37497980968658 15.037190588755351 22.080313983791765 H 0.0 **** 0.06
22063 H 20.00590391736742 14.01048361188333 22.570093422217575 H 0.0 **** 0.06
22064 H 20.332630099346716 14.294947567966261 20.843642968626497 H 0.0 **** 0.06
22065 H 19.706400465894575 15.61488576457225 21.86068010623172 H 0.0 **** 0.06
22066 C 86.93929578038768 4.164445925028957 88.94416210877 C 0.0 **** -0.24
22067 H 87.30556554483886 4.1693376272299645 89.97072798151942 H 0.0 **** 0.06
22068 H 86.02230047448279 3.577754122411619 88.8886075669632 H 0.0 **** 0.06
22069 H 87.69259972489499 3.72489746559242 88.2914759659291 H 0.0 **** 0.06
22070 H 86.73693506274918 5.187902670859586 88.62654998110881 H 0.0 **** 0.06
22071 C 11.645379230855472 91.32633667356555 56.28717960629814 C 0.0 **** -0.24
22072 H 12.688655631174711 91.63967710165795 56.252900233665855 H 0.0 **** 0.06
22073 H 11.290159634563267 91.3561120036606 57.31679622413992 H 0.0 **** 0.06
22074 H 11.558776688354087 90.31046105021818 55.90125253733029 H 0.0 **** 0.06
22075 H 11.044225181922059 91.99916322088117 55.67555454492677 H 0.0 **** 0.06
22076 C 99.91195643953387 38.79561167073456 20.069247073539596 C 0.0 **** -0.24
22077 H 100.25633008114528 37.921972645545225 19.51486482604443 H 0.0 **** 0.06
22078 H 100.48902049241605 38.89128956553924 20.989212729050124 H 0.0 **** 0.06
22079 H 98.85564697270587 38.6780803878286 20.31161185464928 H 0.0 **** 0.06
22080 H 100.04769578166685 39.688692703049384 19.45973904888344 H 0.0 **** 0.06
22081 C 96.13198631636408 25.927414959785324 63.39145566809401 C 0.0 **** -0.24
22082 H 95.33478913079043 25.994101617604997 62.651345891906516 H 0.0 **** 0.06
22083 H 96.38272122656292 24.87947075892413 63.56088712414035 H 0.0 **** 0.06
22084 H 95.79749560969313 26.376597824831038 64.32650683165869 H 0.0 **** 0.06
22085 H 97.01136839032307 26.458264335900196 63.02725921991663 H 0.0 **** 0.06
22086 C 12.111538839783396 111.5055129295208 100.41918628043675 C 0.0 **** -0.24
22087 H 11.535226025861725 111.27059673418636 99.52486316721127 H 0.0 **** 0.06
22088 H 11.62573581005281 112.31750801916343 100.96189472772096 H 0.0 **** 0.06
22089 H 13.118408890295271 111.80946279328495 100.13327521687836 H 0.0 **** 0.06
22090 H 12.166245297632845 110.62373953562057 101.05817993673236 H 0.0 **** 0.06
22091 C 101.7386837891282 37.25144520251581 97.64103090070734 C 0.0 **** -0.24
22092 H 101.37781309598978 36.99255779133466 98.63644418983858 H 0.0 **** 0.06
22093 H 102.78129053928546 37.564588772976165 97.70333085560753 H 0.0 **** 0.06
22094 H 101.13730556427012 38.06572194817319 97.23654284199313 H 0.0 **** 0.06
22095 H 101.65824160217701 36.38160951298035 96.98834954685134 H 0.0 **** 0.06
22096 C 26.126042216450884 74.54136451459445 65.76003273644065 C 0.0 **** -0.24
22097 H 25.68014835838872 74.26468265689155 66.71482680773784 H 0.0 **** 0.06
22098 H 25.433312523349088 75.17323310059851 65.20400878123144 H 0.0 **** 0.06
22099 H 26.337841501659426 73.64039440741178 65.183914764022 H 0.0 **** 0.06
22100 H 27.053515783716563 75.08594384059126 65.93702173268832 H 0.0 **** 0.06
22101 C 53.48982047074736 73.40594851210582 87.66429021710377 C 0.0 **** -0.24
22102 H 52.42609636240505 73.30408679555947 87.88018185667033 H 0.0 **** 0.06
22103 H 53.63853932925604 73.4492156321933 86.58493454138716 H 0.0 **** 0.06
22104 H 54.02669732936795 72.54931674133084 88.07116511703884 H 0.0 **** 0.06
22105 H 53.8666797226396 74.32143213826419 88.12031082950216 H 0.0 **** 0.06
22106 C 105.2960333371401 30.902711677415795 15.124048983147333 C 0.0 **** -0.24
22107 H 106.10553461893034 31.343708668216237 15.705619518783152 H 0.0 **** 0.06
22108 H 105.42235319928528 29.82006667114527 15.088536734262647 H 0.0 **** 0.06
22109 H 105.31570279771853 31.30510990620664 14.111222865523075 H 0.0 **** 0.06
22110 H 104.34091738363014 31.142431511012802 15.59209697362806 H 0.0 **** 0.06
22111 C 63.90713128732377 2.0873063498242175 28.122712858792113 C 0.0 **** -0.24
22112 H 64.67007589101883 2.815618290139568 27.84740897778562 H 0.0 **** 0.06
22113 H 63.73637943744115 2.131293612315517 29.198444657457287 H 0.0 **** 0.06
22114 H 64.24354258684238 1.0874553646010696 27.847812094766994 H 0.0 **** 0.06
22115 H 62.98062470795778 2.3159956100126635 27.59773986721393 H 0.0 **** 0.06
22116 C 0.6266822192526291 106.70041473425113 98.50944262509341 C 0.0 **** -0.24
22117 H 0.1091314666704335 105.81889715954034 98.88689051343673 H 0.0 **** 0.06
22118 H 1.7038154604697695 106.5319369311647 98.54572321410703 H 0.0 **** 0.06
22119 H 0.37146433439880866 107.56273766858905 99.12467095957325 H 0.0 **** 0.06
22120 H 0.32253389075961536 106.88689529853656 97.4788943104341 H 0.0 **** 0.06
22121 C 28.79250476493388 17.304037825555923 10.269507463622801 C 0.0 **** -0.24
22122 H 28.378210092772235 16.327511437746125 10.016574332900507 H 0.0 **** 0.06
22123 H 29.20053993766021 17.768068207800127 9.371575357478964 H 0.0 **** 0.06
22124 H 29.58509772273743 17.181819269258256 11.007234344783026 H 0.0 **** 0.06
22125 H 28.006278562093257 17.93706708488409 10.68087138986613 H 0.0 **** 0.06
22126 C 0.22408529681799472 0.40107977016225504 39.929422874611646 C 0.0 **** -0.24
22127 H 0.5963956484062187 -0.5662264636474674 40.2664786649882 H 0.0 **** 0.06
22128 H -0.5345542061057618 0.7601706495655094 40.62590180106167 H 0.0 **** 0.06
22129 H -0.2139025462444586 0.29603256008761036 38.93745834588651 H 0.0 **** 0.06
22130 H 1.0472279030444742 1.113596162058684 39.889868719047854 H 0.0 **** 0.06
22131 C 76.44301772422716 100.52931275357881 95.62691792011705 C 0.0 **** -0.24
22132 H 76.09518223210648 101.4975743822923 95.26760353624826 H 0.0 **** 0.06
22133 H 75.66252671477116 100.06419608799231 96.22977386074808 H 0.0 **** 0.06
22134 H 77.33705554256187 100.66864984410938 96.23567615593018 H 0.0 **** 0.06
22135 H 76.6777063101091 99.88918234151387 94.77750095122619 H 0.0 **** 0.06
22136 C 83.09598525004748 102.38928283114615 63.72338127570049 C 0.0 **** -0.24
22137 H 83.41307136407318 102.47856556907786 64.76261800473551 H 0.0 **** 0.06
22138 H 83.70037445944132 101.63136673237855 63.223902647630666 H 0.0 **** 0.06
22139 H 83.22438674005417 103.34709440568435 63.22040022302136 H 0.0 **** 0.06
22140 H 82.0464080317573 102.09778837539773 63.68848725369875 H 0.0 **** 0.06
22141 C 115.4992524976205 104.85486799388758 40.2130313751596 C 0.0 **** -0.24
22142 H 115.09622880840476 105.67044476561483 39.6124105177513 H 0.0 **** 0.06
22143 H 115.60869372338112 103.96613106122899 39.59161666564347 H 0.0 **** 0.06
22144 H 114.81988533918519 104.64043668284643 41.03863024993987 H 0.0 **** 0.06
22145 H 116.47277320069747 105.14283527909154 40.610197922593215 H 0.0 **** 0.06
22146 C 106.06194713180327 45.563621804026326 10.905927743788979 C 0.0 **** -0.24
22147 H 105.9288083572088 45.06479063551947 9.945583774736917 H 0.0 **** 0.06
22148 H 105.3791611329192 46.410591131420205 10.972607557132108 H 0.0 **** 0.06
22149 H 107.08919333046575 45.91579021181224 10.992976876976655 H 0.0 **** 0.06
22150 H 105.85044118013778 44.860364559912085 11.71203288881047 H 0.0 **** 0.06
22151 C 115.38834911176974 59.32935001810239 82.13160543352777 C 0.0 **** -0.24
22152 H 114.54514087487077 59.93669381727884 81.80322254595075 H 0.0 **** 0.06
22153 H 116.01133298007258 59.911480290240036 82.81108055770218 H 0.0 **** 0.06
22154 H 115.97783348128227 59.02917214721657 81.26491493118507 H 0.0 **** 0.06
22155 H 115.01989984581888 58.442552323022795 82.64544280167905 H 0.0 **** 0.06
22156 C 72.50723690505004 100.77095500168042 84.79460316088614 C 0.0 **** -0.24
22157 H 71.53449129165926 101.19625512911381 85.04578807431312 H 0.0 **** 0.06
22158 H 72.43516822052072 99.68318812051751 84.78284266299852 H 0.0 **** 0.06
22159 H 73.2403551556718 101.07845360431372 85.54026273523493 H 0.0 **** 0.06
22160 H 72.81575223671481 101.12687199451642 83.81267891251616 H 0.0 **** 0.06
22161 C 8.635695063329194 80.17818181644839 112.87890778455838 C 0.0 **** -0.24
22162 H 7.780079273449871 79.90115619283324 113.49559931919433 H 0.0 **** 0.06
22163 H 8.32745504720566 80.92033128330706 112.1428743654136 H 0.0 **** 0.06
22164 H 9.015049414035943 79.29355676551552 112.36689138650607 H 0.0 **** 0.06
22165 H 9.419007907236903 80.59580121700515 113.51128898118387 H 0.0 **** 0.06
22166 C 85.49284480052464 10.634197086359308 47.09980506218477 C 0.0 **** -0.24
22167 H 84.88424828895589 11.325858122561229 47.68221578983014 H 0.0 **** 0.06
22168 H 84.98634717195051 9.671523356058259 47.035048826751165 H 0.0 **** 0.06
22169 H 86.46050957879729 10.504722255948067 47.58576820884514 H 0.0 **** 0.06
22170 H 85.64025557540742 11.0366517123378 46.09725065263268 H 0.0 **** 0.06
22171 C 91.55804713607964 19.431628933069113 110.69832295684898 C 0.0 **** -0.24
22172 H 91.59885420106605 20.35476148754366 110.12048213578252 H 0.0 **** 0.06
22173 H 90.53410085151043 19.056520407596658 110.71119297747026 H 0.0 **** 0.06
22174 H 91.88737430277217 19.627276898973225 111.71856039388209 H 0.0 **** 0.06
22175 H 92.21115844617003 18.687731146042193 110.2409448592272 H 0.0 **** 0.06
22176 C 71.7458810340971 115.43753930335633 57.83448920287902 C 0.0 **** -0.24
22177 H 72.73342036693262 115.01417853776884 58.01606468295417 H 0.0 **** 0.06
22178 H 71.3292303226682 115.80127408524757 58.77403281004106 H 0.0 **** 0.06
22179 H 71.09309046544485 114.67128525763177 57.41865381991581 H 0.0 **** 0.06
22180 H 71.83023884512903 116.26478464719268 57.129529711513335 H 0.0 **** 0.06
22181 C 96.67468533783449 32.45656164287996 62.704407451329075 C 0.0 **** -0.24
22182 H 96.27514046992673 32.58294392114425 63.711155406058595 H 0.0 **** 0.06
22183 H 97.63672528591408 32.964765454257304 62.62950708342623 H 0.0 **** 0.06
22184 H 95.98016204533047 32.88475083610885 61.982024350791704 H 0.0 **** 0.06
22185 H 96.80693738984729 31.395020790177654 62.49679401020566 H 0.0 **** 0.06
22186 C 50.497746828375 5.696502810465242 44.04967259166439 C 0.0 **** -0.24
22187 H 50.47949267602371 6.786057368026315 44.01569249216122 H 0.0 **** 0.06
22188 H 49.61386144274087 5.302459991598598 43.547920803002235 H 0.0 **** 0.06
22189 H 50.50417376252079 5.365526361300166 45.08824433044613 H 0.0 **** 0.06
22190 H 51.3945882333378 5.332798219460814 43.54702211919941 H 0.0 **** 0.06
22191 C 4.544169938397076 74.13640854745387 116.41249800097938 C 0.0 **** -0.24
22192 H 4.514364202608121 75.12760512611504 116.86558624570131 H 0.0 **** 0.06
22193 H 5.284727249614335 74.1264180706541 115.61158219137272 H 0.0 **** 0.06
22194 H 3.563641894805457 73.89282352239422 116.00541451723936 H 0.0 **** 0.06
22195 H 4.816736780096406 73.39949070598661 117.16872048244375 H 0.0 **** 0.06
22196 C 86.8689311535413 77.24531762731164 96.78277428247833 C 0.0 **** -0.24
22197 H 86.55844047096502 76.29910027470822 97.22562550831577 H 0.0 **** 0.06
22198 H 86.49411088383278 77.30780325273957 95.76132029056379 H 0.0 **** 0.06
22199 H 87.95677773705003 77.30238591067953 96.77563939022576 H 0.0 **** 0.06
22200 H 86.46489987188974 78.07044610583145 97.36969822056597 H 0.0 **** 0.06
22201 C 58.1135660300693 66.63399878886722 27.794313804996932 C 0.0 **** -0.24
22202 H 57.575065579858524 65.97185542934398 28.471633041523944 H 0.0 **** 0.06
22203 H 59.136736989449 66.27821177001405 27.676094890029788 H 0.0 **** 0.06
22204 H 58.12530452922858 67.64359741511356 28.20729672946061 H 0.0 **** 0.06
22205 H 57.61634839171595 66.64386737993763 26.824463204927213 H 0.0 **** 0.06
22206 C 77.33021465706702 80.54873003378444 61.80687732157899 C 0.0 **** -0.24
22207 H 77.69177997413811 81.54537637460442 62.06331572799906 H 0.0 **** 0.06
22208 H 77.08527371378733 80.51372816243023 60.744714507063385 H 0.0 **** 0.06
22209 H 76.43952987186316 80.32421025362237 62.39286826827901 H 0.0 **** 0.06
22210 H 78.10491856888825 79.814472983536 62.02600822515863 H 0.0 **** 0.06
22211 C 32.44372671554067 58.564726985302705 89.89818550313356 C 0.0 **** -0.24
22212 H 32.83663326183323 57.77049259529466 89.26317435087827 H 0.0 **** 0.06
22213 H 33.186045477202065 59.358569862478454 89.9878257555414 H 0.0 **** 0.06
22214 H 32.21913527962555 58.1624671820609 90.88605022288948 H 0.0 **** 0.06
22215 H 31.532935072134308 58.9673355031664 89.45428690829351 H 0.0 **** 0.06
22216 C 55.2426094771921 11.593557745914097 80.85579836738532 C 0.0 **** -0.24
22217 H 55.361985184246755 10.514384466777187 80.76867578789088 H 0.0 **** 0.06
22218 H 54.21777877629397 11.8230182200856 81.14821914324884 H 0.0 **** 0.06
22219 H 55.460073257613665 12.062614996943921 79.89627517422852 H 0.0 **** 0.06
22220 H 55.93003823889892 11.975398874868915 81.61115395432549 H 0.0 **** 0.06
22221 C 24.520781701814904 103.92091765534508 92.50407378466156 C 0.0 **** -0.24
22222 H 23.54675378308539 104.04140089809314 92.03101215548412 H 0.0 **** 0.06
22223 H 25.21693435875425 104.65455028132993 92.09543003495736 H 0.0 **** 0.06
22224 H 24.89737059798341 102.91621859896401 92.3120957280288 H 0.0 **** 0.06
22225 H 24.423728151215897 104.07259688405239 93.57976801112562 H 0.0 **** 0.06
22226 C 108.40348631855312 93.01171590769366 44.92786681082592 C 0.0 **** -0.24
22227 H 109.13660641074743 92.89317802726896 45.72523662520683 H 0.0 **** 0.06
22228 H 107.56370888862608 93.60448734183433 45.29258169738183 H 0.0 **** 0.06
22229 H 108.04620269298087 92.03141842743773 44.612855362294646 H 0.0 **** 0.06
22230 H 108.86581559124491 93.5192938741259 44.08112586373599 H 0.0 **** 0.06
22231 C 6.042249168788885 67.02831396036507 46.12194921451078 C 0.0 **** -0.24
22232 H 6.180836378846109 68.05209943093593 45.7731227330525 H 0.0 **** 0.06
22233 H 5.121497851150764 66.96364184861781 46.702307322657475 H 0.0 **** 0.06
22234 H 6.887544023637844 66.74069603482673 46.74730872334709 H 0.0 **** 0.06
22235 H 5.980691745829432 66.35783655012688 45.264359142726406 H 0.0 **** 0.06
22236 C 115.81882865295921 5.262525912521667 78.86343561326225 C 0.0 **** -0.24
22237 H 115.91739490386942 4.4952188929925825 79.63136764320234 H 0.0 **** 0.06
22238 H 116.49624812414271 6.088092160595352 79.08697382086274 H 0.0 **** 0.06
22239 H 114.79290636292706 5.628605157341099 78.84493330987951 H 0.0 **** 0.06
22240 H 116.07195108146493 4.837749385020103 77.89238058624218 H 0.0 **** 0.06
22241 C 52.380181911226714 22.87728520385059 28.847994715427376 C 0.0 **** -0.24
22242 H 52.386035459560844 23.676233397211462 29.590044267069004 H 0.0 **** 0.06
22243 H 53.39196866798213 22.72595792183128 28.470870570923978 H 0.0 **** 0.06
22244 H 51.7215808772614 23.15212111827455 28.02386312061634 H 0.0 **** 0.06
22245 H 52.021639455806536 21.957274860324105 29.30886476044344 H 0.0 **** 0.06
22246 C 59.93636433822877 26.640954707274147 81.40598975167671 C 0.0 **** -0.24
22247 H 60.29829600811365 26.064261603676215 82.25765902008322 H 0.0 **** 0.06
22248 H 60.74889004150026 26.778593071970334 80.69053409500376 H 0.0 **** 0.06
22249 H 59.585981040048466 27.6136704404054 81.74922077264415 H 0.0 **** 0.06
22250 H 59.11678627272164 26.106112063835013 80.92717032382345 H 0.0 **** 0.06
22251 C 95.9517706961197 9.04149981698157 102.80660775396706 C 0.0 **** -0.24
22252 H 96.0827059674557 8.851608332752278 103.87195518462724 H 0.0 **** 0.06
22253 H 95.82088648256155 8.095199084858166 102.28157516230036 H 0.0 **** 0.06
22254 H 96.83141575500684 9.55447749688716 102.41858275512965 H 0.0 **** 0.06
22255 H 95.07078427658783 9.66605549142065 102.65555757410644 H 0.0 **** 0.06
22256 C 68.86968068137043 31.135705470902103 78.9978359971442 C 0.0 **** -0.24
22257 H 68.72052578311471 30.528754099557794 79.89076533709923 H 0.0 **** 0.06
22258 H 69.93661241391555 31.21126756719726 78.78374695829149 H 0.0 **** 0.06
22259 H 68.46034628070535 32.132738367858394 79.16358512720225 H 0.0 **** 0.06
22260 H 68.36123824774637 30.67006184899494 78.1532465659837 H 0.0 **** 0.06
22261 C 47.491265101668304 77.6050058437425 108.25903814630783 C 0.0 **** -0.24
22262 H 46.50304076540839 77.8600032048202 108.64335577860494 H 0.0 **** 0.06
22263 H 47.40472676030638 76.7703040237891 107.56179852931484 H 0.0 **** 0.06
22264 H 48.14102355894101 77.32202719066458 109.0862599453308 H 0.0 **** 0.06
22265 H 47.91310854182743 78.46750390661498 107.74333265704448 H 0.0 **** 0.06
22266 C 43.91512622960386 83.08318977619706 58.00838834647629 C 0.0 **** -0.24
22267 H 43.6443818884905 83.73205782212892 58.84088019854824 H 0.0 **** 0.06
22268 H 43.01443645025091 82.62740418686451 57.595338144051674 H 0.0 **** 0.06
22269 H 44.58826437505496 82.30140809577966 58.361708974796635 H 0.0 **** 0.06
22270 H 44.41267101184184 83.6697431110681 57.23653778027006 H 0.0 **** 0.06
22271 C 30.916750890953608 28.72879440680066 96.24351767211783 C 0.0 **** -0.24
22272 H 30.408495592126258 27.88373990478661 96.70774110529916 H 0.0 **** 0.06
22273 H 30.275556566545617 29.609349046781887 96.29246025113918 H 0.0 **** 0.06
22274 H 31.13407297372072 28.494918326105676 95.20228429774744 H 0.0 **** 0.06
22275 H 31.848371305070202 28.927862908553465 96.77364985270657 H 0.0 **** 0.06
22276 C 96.64257958921081 70.48404052118423 71.84548112152103 C 0.0 **** -0.24
22277 H 97.43475157702139 70.71589548367922 72.55617351855628 H 0.0 **** 0.06
22278 H 96.86872948404556 69.54159210226322 71.3448352605522 H 0.0 **** 0.06
22279 H 96.57386954393286 71.28070795251537 71.10503404492667 H 0.0 **** 0.06
22280 H 95.69396387066641 70.39643592574907 72.37424908850318 H 0.0 **** 0.06
22281 C 33.577284538181345 97.6796497802988 96.86801846441625 C 0.0 **** -0.24
22282 H 32.76818077967485 98.40403673842627 96.7725950359881 H 0.0 **** 0.06
22283 H 34.363057080674935 98.09509512976251 97.50062636953311 H 0.0 **** 0.06
22284 H 33.984241767013856 97.45868540965532 95.88169474575795 H 0.0 **** 0.06
22285 H 33.194375610030875 96.76385082065391 97.31741799159704 H 0.0 **** 0.06
22286 C 65.1876679762118 73.1937170851728 31.556347144240306 C 0.0 **** -0.24
22287 H 66.08229522071562 73.03868453233909 32.15832462627469 H 0.0 **** 0.06
22288 H 65.456716954597 73.70146462662967 30.629533188184496 H 0.0 **** 0.06
22289 H 64.47731467310334 73.80611347646274 32.11294743827932 H 0.0 **** 0.06
22290 H 64.73375922053827 72.2302306979953 31.324455382569795 H 0.0 **** 0.06
22291 C 34.10960455077549 83.41618309307901 42.47289004400319 C 0.0 **** -0.24
22292 H 34.89858186657108 84.00635613712492 42.00725766806725 H 0.0 **** 0.06
22293 H 33.87722681178701 83.83021688164538 43.45368693022857 H 0.0 **** 0.06
22294 H 34.44599070204856 82.38500326670834 42.58399148630505 H 0.0 **** 0.06
22295 H 33.218137531633545 83.44239346550276 41.846289269053926 H 0.0 **** 0.06
22296 C 20.074578884513954 36.85500880272355 9.07068457291146 C 0.0 **** -0.24
22297 H 21.06354249517625 36.56711908789034 8.71500435757818 H 0.0 **** 0.06
22298 H 19.323931874509157 36.550708183333555 8.340605658191691 H 0.0 **** 0.06
22299 H 20.035907974995723 37.93600049724514 9.203802800315174 H 0.0 **** 0.06
22300 H 19.874309754176352 36.364104568063006 10.02376082970568 H 0.0 **** 0.06
22301 C 21.39541144106417 47.41372939324482 11.622674430531973 C 0.0 **** -0.24
22302 H 20.318759018546103 47.44643476362429 11.45438030579247 H 0.0 **** 0.06
22303 H 21.72088864554175 48.35232412784877 12.072899447193578 H 0.0 **** 0.06
22304 H 21.90766827240887 47.26936239805738 10.671392621832126 H 0.0 **** 0.06
22305 H 21.633615974744913 46.587417692701564 12.293076242410933 H 0.0 **** 0.06
22306 C 21.93026948662262 42.13384197036271 57.213841150545534 C 0.0 **** -0.24
22307 H 22.05001015847543 41.05096345492478 57.1871160136709 H 0.0 **** 0.06
22308 H 21.73351062187382 42.45202387731928 58.23802923662646 H 0.0 **** 0.06
22309 H 21.09593573812711 42.424198383447845 56.57573983789882 H 0.0 **** 0.06
22310 H 22.843739684598717 42.60888914303894 56.85459554164322 H 0.0 **** 0.06
22311 C 7.537666486906346 57.60353589028378 58.94627701389225 C 0.0 **** -0.24
22312 H 6.600468921890524 57.67608542579114 58.39403134219973 H 0.0 **** 0.06
22313 H 7.702161127140215 56.56866878657118 59.24696717812643 H 0.0 **** 0.06
22314 H 7.487081692677009 58.23650969315318 59.83236071402333 H 0.0 **** 0.06
22315 H 8.359907318793077 57.93271924070487 58.31081158565494 H 0.0 **** 0.06
22316 C 50.0023701702076 70.95174902909051 6.249845465100265 C 0.0 **** -0.24
22317 H 50.183184652050386 71.97867784847392 5.931491387476171 H 0.0 **** 0.06
22318 H 49.31779790616096 70.46989574230153 5.550590656104191 H 0.0 **** 0.06
22319 H 49.561758917513345 70.9523599469621 7.246875214967105 H 0.0 **** 0.06
22320 H 50.94525038355573 70.40630738436346 6.26957392289431 H 0.0 **** 0.06
22321 C 10.39058832052045 27.362979807385102 101.34548575940377 C 0.0 **** -0.24
22322 H 10.073701724443023 26.525901914884656 100.72364218166408 H 0.0 **** 0.06
22323 H 10.958657794157613 26.986730157443816 102.19691943466759 H 0.0 **** 0.06
22324 H 9.513613864756362 27.90207224205534 101.7023681716301 H 0.0 **** 0.06
22325 H 11.016872644318084 28.03504014342485 100.75884633666794 H 0.0 **** 0.06
22326 C 95.31627002184456 11.787943710750952 72.05686857367857 C 0.0 **** -0.24
22327 H 94.59536532491785 12.209492099713927 71.35631711701927 H 0.0 **** 0.06
22328 H 95.44735887556266 12.470710591434297 72.89715610891483 H 0.0 **** 0.06
22329 H 96.27156157745998 11.644756099682766 71.55254201474787 H 0.0 **** 0.06
22330 H 94.94955504254398 10.82833569646536 72.42185292074748 H 0.0 **** 0.06
22331 C 87.82852569211812 34.506203414210944 31.80313172269132 C 0.0 **** -0.24
22332 H 86.8349202862137 34.85837832386716 31.524176254459576 H 0.0 **** 0.06
22333 H 87.95746909149861 34.599287678510194 32.88135427411771 H 0.0 **** 0.06
22334 H 88.58237464594461 35.106496251615255 31.29299519731086 H 0.0 **** 0.06
22335 H 87.9379837419217 33.461145793037645 31.5122924121884 H 0.0 **** 0.06
22336 C 113.98457181424199 90.98782562104054 41.04277225252781 C 0.0 **** -0.24
22337 H 113.24209679174812 91.78548028099792 41.037498011081084 H 0.0 **** 0.06
22338 H 114.96199850325132 91.39961928326656 40.790074700658124 H 0.0 **** 0.06
22339 H 113.70859370634744 90.23063606167895 40.308450758397555 H 0.0 **** 0.06
22340 H 114.02555815057683 90.53529123339709 42.03410508144208 H 0.0 **** 0.06
22341 C 76.76738538719886 21.86177832482244 94.11364340964442 C 0.0 **** -0.24
22342 H 77.74421731272275 22.226620200322287 93.79471737758212 H 0.0 **** 0.06
22343 H 76.63548374665893 22.063692773454846 95.17680214638 H 0.0 **** 0.06
22344 H 76.70538324090438 20.788246953084155 93.93692877955766 H 0.0 **** 0.06
22345 H 75.98798535344255 22.36949866096728 93.5469375652323 H 0.0 **** 0.06
22346 C 86.45447612751019 74.53474669992906 84.21614883295229 C 0.0 **** -0.24
22347 H 85.64723286663084 73.98124584426438 84.69674131771396 H 0.0 **** 0.06
22348 H 87.31435863667778 74.57615733269475 84.88414969434231 H 0.0 **** 0.06
22349 H 86.11623101947501 75.54640267992127 83.99332074693746 H 0.0 **** 0.06
22350 H 86.736246560702 74.03368916225071 83.29012846367084 H 0.0 **** 0.06
22351 C 57.94020865908774 107.37176130844867 26.06578434591202 C 0.0 **** -0.24
22352 H 57.53966922621468 106.81217549857755 26.910231363542835 H 0.0 **** 0.06
22353 H 57.35134896892989 108.27818036155873 25.919313087393306 H 0.0 **** 0.06
22354 H 57.891515677766684 106.75751550491148 25.16711143319415 H 0.0 **** 0.06
22355 H 58.977307489332894 107.64059285893867 26.266474605055976 H 0.0 **** 0.06
22356 C 54.41822326635588 25.196712141437928 55.18828004120046 C 0.0 **** -0.24
22357 H 54.32044033539154 26.106593463079975 54.59546262476348 H 0.0 **** 0.06
22358 H 54.25123568938946 24.328109709902996 54.55079438055697 H 0.0 **** 0.06
22359 H 53.682875544659055 25.206625860326824 55.99185413389757 H 0.0 **** 0.06
22360 H 55.42088070295091 25.14778267207179 55.61381262195618 H 0.0 **** 0.06
22361 C 10.277738477589974 39.54104131653125 101.2584497279421 C 0.0 **** -0.24
22362 H 9.393970374611811 39.148573159874246 100.75631269469756 H 0.0 **** 0.06
22363 H 10.097902924239285 40.57506815514063 101.55667577427772 H 0.0 **** 0.06
22364 H 11.128818748803951 39.50210258636952 100.57830185212353 H 0.0 **** 0.06
22365 H 10.490667927336073 38.939737008886596 102.14218562303054 H 0.0 **** 0.06
22366 C 62.87090393455521 56.4632745725487 60.54464153482229 C 0.0 **** -0.24
22367 H 62.237552746845616 57.045674234940606 61.2137542813972 H 0.0 **** 0.06
22368 H 62.268879885306994 56.06898692819365 59.725869726936594 H 0.0 **** 0.06
22369 H 63.32099560233342 55.63846582760303 61.09586463936495 H 0.0 **** 0.06
22370 H 63.65658037761158 57.10272070971942 60.14254190058284 H 0.0 **** 0.06
22371 C 63.909214832029015 25.854918329931337 35.89795585841491 C 0.0 **** -0.24
22372 H 63.67455077214985 26.879707793147077 35.61084390003569 H 0.0 **** 0.06
22373 H 63.5401339459414 25.66719721973078 36.907002506764684 H 0.0 **** 0.06
22374 H 64.98863418481352 25.708037012920755 35.87292266115095 H 0.0 **** 0.06
22375 H 63.43260644269579 25.164788178341183 35.202114816991376 H 0.0 **** 0.06
22376 C 92.4121908624098 88.2141703085127 71.3231800404296 C 0.0 **** -0.24
22377 H 93.40201741710871 88.59062366266184 71.06635677412405 H 0.0 **** 0.06
22378 H 91.79816207041594 89.03239179423741 71.69984464601171 H 0.0 **** 0.06
22379 H 92.50494894960397 87.44536658411414 72.0910138775676 H 0.0 **** 0.06
22380 H 91.94460286992566 87.78629355348755 70.43570723068532 H 0.0 **** 0.06
22381 C 48.28054393646272 80.89593086028529 24.8910922016361 C 0.0 **** -0.24
22382 H 48.79742979268374 80.09645162140498 24.359685615303775 H 0.0 **** 0.06
22383 H 48.61051922695788 81.86032331109277 24.504098004643396 H 0.0 **** 0.06
22384 H 48.512680498778586 80.83256101590425 25.954366326684266 H 0.0 **** 0.06
22385 H 47.205562039900585 80.79371650046394 24.74687001766742 H 0.0 **** 0.06
22386 C 35.092676730088215 95.50895146564972 1.1113364525637763 C 0.0 **** -0.24
22387 H 34.021597201905934 95.63249683512225 0.946460009062406 H 0.0 **** 0.06
22388 H 35.312461978852554 94.45791353497603 1.2993781822983408 H 0.0 **** 0.06
22389 H 35.39818269803965 96.10375585250043 1.972157463183379 H 0.0 **** 0.06
22390 H 35.63712157654405 95.84196897758656 0.22764469708313584 H 0.0 **** 0.06
22391 C 40.67749792356554 41.67840832933399 5.107465453016289 C 0.0 **** -0.24
22392 H 40.2396524247102 42.31135175596354 4.336600475543548 H 0.0 **** 0.06
22393 H 39.926815980216496 40.97637902897205 5.4701863331917195 H 0.0 **** 0.06
22394 H 41.02304326034993 42.29929582876915 5.93436274471955 H 0.0 **** 0.06
22395 H 41.52007558844879 41.126746789559775 4.6903906441244345 H 0.0 **** 0.06
22396 C 71.96642467646757 102.38255321336811 50.044491465987065 C 0.0 **** -0.24
22397 H 71.17979243612479 102.86236689098655 50.62641886033208 H 0.0 **** 0.06
22398 H 72.68104164918253 101.91160037694516 50.71893711229491 H 0.0 **** 0.06
22399 H 72.47643756534205 103.1300993144313 49.43751156326013 H 0.0 **** 0.06
22400 H 71.52570520485571 101.62549986482435 49.39468101055195 H 0.0 **** 0.06
22401 C 75.0855565712433 39.30195869332782 34.5256620836106 C 0.0 **** -0.24
22402 H 75.94507587652387 39.17088990021412 35.18187349116417 H 0.0 **** 0.06
22403 H 75.1322217188985 40.28511356872684 34.056792325885425 H 0.0 **** 0.06
22404 H 74.16799511133738 39.22085133228515 35.10868485038701 H 0.0 **** 0.06
22405 H 75.0955690890514 38.53089721934532 33.75566020998227 H 0.0 **** 0.06
22406 C 68.6489761309872 90.31064546524124 102.22218223644578 C 0.0 **** -0.24
22407 H 68.51932984947001 90.42605443126175 101.14571085974049 H 0.0 **** 0.06
22408 H 67.73623063030612 89.90223673468563 102.65567261515855 H 0.0 **** 0.06
22409 H 68.86080248873762 91.28167650480142 102.6686698877738 H 0.0 **** 0.06
22410 H 69.48019597215418 89.63224110042776 102.41711586617538 H 0.0 **** 0.06
22411 C 55.6519476847886 114.30198660836655 67.94191803184219 C 0.0 **** -0.24
22412 H 56.09896762432691 113.87661154666783 68.8401202156775 H 0.0 **** 0.06
22413 H 56.189599665044334 113.9449843386045 67.06451869798389 H 0.0 **** 0.06
22414 H 55.71068542873993 115.38959632480146 67.98723871850456 H 0.0 **** 0.06
22415 H 54.60727569042051 113.99800724951032 67.87714975798062 H 0.0 **** 0.06
22416 C 8.451132421704642 103.0588122503193 76.63996897886088 C 0.0 **** -0.24
22417 H 8.827443232989765 104.06368553815255 76.82836946380775 H 0.0 **** 0.06
22418 H 8.87184365293011 102.3691975019619 77.37126336611286 H 0.0 **** 0.06
22419 H 8.738953262819564 102.74540844976204 75.63611827992091 H 0.0 **** 0.06
22420 H 7.3638287644816245 103.05752299643243 76.72250451475475 H 0.0 **** 0.06
22421 C 115.44142151926899 15.641992276020378 52.789171576435194 C 0.0 **** -0.24
22422 H 115.77691030207437 16.17609740849225 51.89945081908098 H 0.0 **** 0.06
22423 H 114.74894317660451 16.269606188181147 53.350660242280185 H 0.0 **** 0.06
22424 H 116.30277847082772 15.402447575822432 53.41365902507965 H 0.0 **** 0.06
22425 H 114.94027974539613 14.721193718533446 52.4920775569359 H 0.0 **** 0.06
22426 C 4.342005639910127 68.6567677517209 20.52120196854642 C 0.0 **** -0.24
22427 H 3.6406664483575355 69.32920576693868 21.016102433350795 H 0.0 **** 0.06
22428 H 4.973460580213498 68.17634656377987 21.268444295172742 H 0.0 **** 0.06
22429 H 4.965524829566988 69.22572618398408 19.830679588087634 H 0.0 **** 0.06
22430 H 3.7891112099021598 67.89699692005638 19.96954813747658 H 0.0 **** 0.06
22431 C 116.55552551136799 80.21100120722272 113.97569633082178 C 0.0 **** -0.24
22432 H 116.81977354823042 81.23076685494553 113.69539118167216 H 0.0 **** 0.06
22433 H 116.70113837791304 80.08003614295043 115.04868845620346 H 0.0 **** 0.06
22434 H 117.19069264366235 79.5089754958388 113.43469297613915 H 0.0 **** 0.06
22435 H 115.51102059002056 80.02443604906 113.72565055712894 H 0.0 **** 0.06
22436 C 51.22318691271323 39.21015808548492 4.976381483411501 C 0.0 **** -0.24
22437 H 50.502983163279396 38.41236567982418 5.154012341468956 H 0.0 **** 0.06
22438 H 51.292354190750416 39.405847804193684 3.906332706119713 H 0.0 **** 0.06
22439 H 52.2002264858109 38.90831420770098 5.354783330456655 H 0.0 **** 0.06
22440 H 50.89858571102218 40.114625619453136 5.491271307035618 H 0.0 **** 0.06
22441 C 37.238700138076716 78.99110985938432 89.1231186129358 C 0.0 **** -0.24
22442 H 36.76803603095264 78.6350855440653 90.03944548725605 H 0.0 **** 0.06
22443 H 38.26692420048966 79.28701159180576 89.33516460810011 H 0.0 **** 0.06
22444 H 36.684929796083516 79.8478110671669 88.73903474820753 H 0.0 **** 0.06
22445 H 37.2360349589673 78.19362956609021 88.37979024129919 H 0.0 **** 0.06
22446 C 35.818340312158604 33.05634029734313 69.00760574762046 C 0.0 **** -0.24
22447 H 36.05689626359635 33.109807774647834 67.94493444073152 H 0.0 **** 0.06
22448 H 36.58980325042277 33.57342105051697 69.57855182067641 H 0.0 **** 0.06
22449 H 35.775394038259634 32.012467758054186 69.31736156665966 H 0.0 **** 0.06
22450 H 34.85352564247498 33.52951945019521 69.18676778575269 H 0.0 **** 0.06
22451 C 82.34185106186942 100.40055890298189 88.05424003190376 C 0.0 **** -0.24
22452 H 81.69097970090701 100.74168242824538 87.24806741864654 H 0.0 **** 0.06
22453 H 81.7620971334278 99.81221811326867 88.76418887337218 H 0.0 **** 0.06
22454 H 82.7720899528704 101.26332917167113 88.56264234957871 H 0.0 **** 0.06
22455 H 83.1411501057303 99.78746064321408 87.63945520468678 H 0.0 **** 0.06
22456 C 32.96438137877665 33.04356959438803 65.75457929953603 C 0.0 **** -0.24
22457 H 33.42444473210102 32.47549294463232 64.94597642894362 H 0.0 **** 0.06
22458 H 33.185245171492 32.56267198032515 66.70748466386198 H 0.0 **** 0.06
22459 H 31.885177258330586 33.079408399404315 65.60560945371233 H 0.0 **** 0.06
22460 H 33.3647255435141 34.057997053007796 65.75749794265772 H 0.0 **** 0.06
22461 C 64.76770759045678 38.9521311847075 80.71395314239311 C 0.0 **** -0.24
22462 H 64.05026269985194 38.7320640271042 81.50569700967924 H 0.0 **** 0.06
22463 H 64.25106960557213 39.41953292414357 79.87589362792414 H 0.0 **** 0.06
22464 H 65.23636921028879 38.02574594183346 80.38157287041156 H 0.0 **** 0.06
22465 H 65.532096595398 39.62970644709597 81.0943097859697 H 0.0 **** 0.06
22466 C 105.2760030344821 113.47070607469175 56.016824525685756 C 0.0 **** -0.24
22467 H 104.97845577399042 114.48468180094594 56.28408061986804 H 0.0 **** 0.06
22468 H 105.47935480592892 112.9015679542176 56.924676882238835 H 0.0 **** 0.06
22469 H 106.17399728153634 113.50546061130652 55.40112464944252 H 0.0 **** 0.06
22470 H 104.47083362490434 112.99054246446474 55.45936404952115 H 0.0 **** 0.06
22471 C 30.07042598481418 53.07658822478567 56.97878475264228 C 0.0 **** -0.24
22472 H 29.03258575889476 52.787320843806086 57.143390342760036 H 0.0 **** 0.06
22473 H 30.145468080345942 54.164218138740175 56.95856421047494 H 0.0 **** 0.06
22474 H 30.413521435417017 52.67048019156282 56.027246660861614 H 0.0 **** 0.06
22475 H 30.68908225335236 52.683532976583535 57.785424044078674 H 0.0 **** 0.06
22476 C 108.1456387751802 103.03182418630962 99.89106258660806 C 0.0 **** -0.24
22477 H 107.19718670153588 102.55927721997324 100.14668731133057 H 0.0 **** 0.06
22478 H 107.97494135211895 103.81180830066623 99.14886439746107 H 0.0 **** 0.06
22479 H 108.82571500465951 102.28418458501451 99.48252577121198 H 0.0 **** 0.06
22480 H 108.58505534818204 103.47119952127869 100.78661792204574 H 0.0 **** 0.06
22481 C 112.99569472470887 115.75958007189284 91.17309970888309 C 0.0 **** -0.24
22482 H 112.65734438941463 116.79377990655591 91.24545844412589 H 0.0 **** 0.06
22483 H 114.05480468292103 115.70600601059398 91.42476987232811 H 0.0 **** 0.06
22484 H 112.84451503975171 115.3993084110647 90.15554823785868 H 0.0 **** 0.06
22485 H 112.42475452665359 115.14185521886762 91.86613523979534 H 0.0 **** 0.06
22486 C 40.151921069785566 91.36732730437677 64.75750674467048 C 0.0 **** -0.24
22487 H 40.11912842664792 92.33496032112436 64.25613962290996 H 0.0 **** 0.06
22488 H 41.05040464890554 91.30710093625419 65.37247590248208 H 0.0 **** 0.06
22489 H 40.16583402173855 90.57238786407106 64.01239625930563 H 0.0 **** 0.06
22490 H 39.270390547134824 91.25687018781662 65.39013239237411 H 0.0 **** 0.06
22491 C 5.60646452938559 93.86920167612104 95.4683833428872 C 0.0 **** -0.24
22492 H 6.501426792305153 94.48202362308527 95.57121191529711 H 0.0 **** 0.06
22493 H 4.839213855779633 94.43273200494826 94.93597933275518 H 0.0 **** 0.06
22494 H 5.236473621303617 93.59835208890601 96.45787021292622 H 0.0 **** 0.06
22495 H 5.8468696638103665 92.96518387776908 94.91028383124086 H 0.0 **** 0.06
22496 C 94.00095142306952 72.64572168866758 80.60792012998479 C 0.0 **** -0.24
22497 H 94.70845093784533 73.01816691259395 81.34915557961202 H 0.0 **** 0.06
22498 H 94.54106006048377 72.34578862958372 79.7093379998453 H 0.0 **** 0.06
22499 H 93.28880979068455 73.43202948262291 80.35877704103228 H 0.0 **** 0.06
22500 H 93.46764971247157 71.78666378260462 81.01553120694362 H 0.0 **** 0.06
22501 C 53.82813396343243 3.419063522675742 57.31027305551459 C 0.0 **** -0.24
22502 H 53.46001083688247 3.319878042372494 58.331620495282415 H 0.0 **** 0.06
22503 H 54.69617220644541 2.7734906304359868 57.17337796226129 H 0.0 **** 0.06
22504 H 54.1132849427201 4.455127397498245 57.12563672700447 H 0.0 **** 0.06
22505 H 53.04418112408959 3.127316522228881 56.6117084022403 H 0.0 **** 0.06
22506 C 85.95801913312823 20.252920754879398 102.04980355046081 C 0.0 **** -0.24
22507 H 85.32590539037804 19.692361790692104 102.73773361057496 H 0.0 **** 0.06
22508 H 85.55420343487123 21.258022121698275 101.92226463773568 H 0.0 **** 0.06
22509 H 85.98318447364932 19.746474049088533 101.08459660764473 H 0.0 **** 0.06
22510 H 86.96828167624491 20.315647003729538 102.45260114477381 H 0.0 **** 0.06
22511 C 32.905192450425915 54.03555141283525 7.052568438142316 C 0.0 **** -0.24
22512 H 32.980598968918486 54.99027419384913 7.574530431104364 H 0.0 **** 0.06
22513 H 31.911855781294207 53.61371430767056 7.210766971487914 H 0.0 **** 0.06
22514 H 33.65873830140268 53.34944257445275 7.438560985426449 H 0.0 **** 0.06
22515 H 33.06782813136087 54.192080914825794 5.986521499563594 H 0.0 **** 0.06
22516 C 39.64366762722932 9.623042331881294 82.68682836764623 C 0.0 **** -0.24
22517 H 40.69851869930454 9.347847610163825 82.7123646902206 H 0.0 **** 0.06
22518 H 39.447132583916925 10.226230054754325 81.80049462130947 H 0.0 **** 0.06
22519 H 39.39603687305441 10.196158983636366 83.57968401829314 H 0.0 **** 0.06
22520 H 39.03429094912667 8.720223972025366 82.654163357388 H 0.0 **** 0.06
22521 C 54.36598300083993 95.69022108605606 35.71864793385322 C 0.0 **** -0.24
22522 H 54.483105432387504 96.72800031606798 35.40644035005093 H 0.0 **** 0.06
22523 H 53.310181577326524 95.41733824803967 35.68165579718527 H 0.0 **** 0.06
22524 H 54.735457968291044 95.57353256967093 36.73762341117316 H 0.0 **** 0.06
22525 H 54.93259119224908 95.04329340306677 35.0496616577129 H 0.0 **** 0.06
22526 C 34.954917444275054 17.181937238472557 58.00057989581427 C 0.0 **** -0.24
22527 H 34.53731809973749 17.48909073409655 58.9592025843088 H 0.0 **** 0.06
22528 H 34.86158561076317 17.998248613294805 57.28436563337664 H 0.0 **** 0.06
22529 H 34.41337796091952 16.31069437721962 57.63147305892636 H 0.0 **** 0.06
22530 H 36.00788490771404 16.9276775372376 58.12805373499896 H 0.0 **** 0.06
22531 C 79.07396746943087 16.170288098168783 25.306128630387036 C 0.0 **** -0.24
22532 H 79.67551548904171 15.795813633609043 26.13463381717918 H 0.0 **** 0.06
22533 H 78.52254295679657 15.344668499362257 24.8553057162965 H 0.0 **** 0.06
22534 H 79.7258100936451 16.623560200247624 24.559597630028463 H 0.0 **** 0.06
22535 H 78.37214325508546 16.917060470927908 25.6759660231225 H 0.0 **** 0.06
22536 C 38.31479780035623 91.76551419708133 55.97816247508692 C 0.0 **** -0.24
22537 H 37.43997776698951 91.34253095702275 56.47153254533703 H 0.0 **** 0.06
22538 H 38.49742383276057 91.23325831802893 55.044461025599134 H 0.0 **** 0.06
22539 H 39.18262964528361 91.66358910992247 56.629582552500864 H 0.0 **** 0.06
22540 H 38.139521551916765 92.81996498002184 55.76830141894351 H 0.0 **** 0.06
22541 C 2.2144476464753815 23.148529179248897 49.71101065006807 C 0.0 **** -0.24
22542 H 2.153455160798945 22.609116663655527 48.765344181167485 H 0.0 **** 0.06
22543 H 1.4987407535005133 23.97013708737802 49.70653771981681 H 0.0 **** 0.06
22544 H 3.2222967789188797 23.543596980764164 49.83851564344424 H 0.0 **** 0.06
22545 H 1.984180593272411 22.469762087413358 50.53224526251163 H 0.0 **** 0.06
22546 C 41.08603994291485 111.26064243364107 76.0161806588423 C 0.0 **** -0.24
22547 H 40.652155960199636 110.2645823338879 76.1033582134383 H 0.0 **** 0.06
22548 H 42.17311366847437 111.18352488624468 76.00187850871052 H 0.0 **** 0.06
22549 H 40.77503343525157 111.86810656141108 76.86667540169759 H 0.0 **** 0.06
22550 H 40.74186226320339 111.72627590825458 75.09268395698541 H 0.0 **** 0.06
22551 C 63.02212836042313 83.04724086856504 5.593198534347849 C 0.0 **** -0.24
22552 H 63.49185361972865 83.5426931738919 6.442367014048742 H 0.0 **** 0.06
22553 H 62.16720020954133 82.4658260734295 5.939713629613522 H 0.0 **** 0.06
22554 H 63.74294797368463 82.38526796451336 5.113993061193398 H 0.0 **** 0.06
22555 H 62.68477378908893 83.79657855623964 4.876837654146016 H 0.0 **** 0.06
22556 C 3.431720902896714 69.47800390691364 75.91007288211648 C 0.0 **** -0.24
22557 H 3.597410074211112 68.4093120265469 75.77495178155752 H 0.0 **** 0.06
22558 H 3.1852905542619823 69.93184451864607 74.94963349928719 H 0.0 **** 0.06
22559 H 4.336357110781719 69.93765108374049 76.30863503814672 H 0.0 **** 0.06
22560 H 2.6084480165705344 69.6319797192358 76.60739429174296 H 0.0 **** 0.06
22561 C 97.48681417950723 75.5059831372759 54.302907177465784 C 0.0 **** -0.24
22562 H 97.69211627673826 75.52072126485078 55.37302995941735 H 0.0 **** 0.06
22563 H 96.56078227922109 74.96036595392684 54.1182430346268 H 0.0 **** 0.06
22564 H 98.30842388108323 75.01467382538786 53.78202657426334 H 0.0 **** 0.06
22565 H 97.38470894739334 76.52816644446975 53.93903529173599 H 0.0 **** 0.06
22566 C 46.964386404085644 95.26231266058582 89.17168671333073 C 0.0 **** -0.24
22567 H 46.55015352082194 95.59774553635711 88.22045702588213 H 0.0 **** 0.06
22568 H 46.55041345352001 94.28484983693923 89.4237163126613 H 0.0 **** 0.06
22569 H 46.708023854448925 95.97851853124263 89.9524180152064 H 0.0 **** 0.06
22570 H 48.04834653879092 95.18708637577646 89.08891980252008 H 0.0 **** 0.06
22571 C 11.550582257387816 29.51789473310646 14.365982732059138 C 0.0 **** -0.24
22572 H 12.06968717097135 30.33065318984319 13.858012512788378 H 0.0 **** 0.06
22573 H 11.21530172292995 28.785424073084414 13.631832441508777 H 0.0 **** 0.06
22574 H 10.689357266145691 29.91669175686502 14.903162854245465 H 0.0 **** 0.06
22575 H 12.229064861214226 29.039780219253657 15.072622557616342 H 0.0 **** 0.06
22576 C 26.868934311797688 50.56282444290679 116.11748940301058 C 0.0 **** -0.24
22577 H 26.5883159586663 51.35094520734947 115.41925239026773 H 0.0 **** 0.06
22578 H 27.82326676714581 50.13054680090545 115.81481691445002 H 0.0 **** 0.06
22579 H 26.102248068013694 49.78742569219298 116.11752572395221 H 0.0 **** 0.06
22580 H 26.96201364785054 50.981680877617805 117.11994366270471 H 0.0 **** 0.06
22581 C 104.24220310216577 72.27745140370277 101.82300908681327 C 0.0 **** -0.24
22582 H 104.79578738111269 71.71303988271887 102.57325306950074 H 0.0 **** 0.06
22583 H 103.22712649594479 72.45541233110717 102.17876094774425 H 0.0 **** 0.06
22584 H 104.20683402996002 71.70760877752028 100.89362086324877 H 0.0 **** 0.06
22585 H 104.73785069677012 73.23187929951303 101.64537794705785 H 0.0 **** 0.06
22586 C 65.7264151815609 94.38478577847053 60.013096246724906 C 0.0 **** -0.24
22587 H 66.49615481693405 93.80452100130543 60.52182273705558 H 0.0 **** 0.06
22588 H 65.95409371183368 94.43634104077447 58.94857828851887 H 0.0 **** 0.06
22589 H 65.6980443450085 95.39246843198413 60.428097151758315 H 0.0 **** 0.06
22590 H 64.75766362249345 93.90588536514454 60.15526787698659 H 0.0 **** 0.06
22591 C 15.150123097820991 115.02347200047367 114.28248375567799 C 0.0 **** -0.24
22592 H 16.23017678257319 114.98781121420294 114.41664476803452 H 0.0 **** 0.06
22593 H 14.88268678815852 114.5300231880297 113.34718051397755 H 0.0 **** 0.06
22594 H 14.821383061701134 116.06289204457447 114.25228442165248 H 0.0 **** 0.06
22595 H 14.664042020871435 114.51292244095661 115.11411968888041 H 0.0 **** 0.06
22596 C 63.428844244165084 79.39850317258555 16.152915440186263 C 0.0 **** -0.24
22597 H 63.58888328624639 80.19997829889647 16.874171356611555 H 0.0 **** 0.06
22598 H 63.88401014344269 78.47966339196165 16.523294242451982 H 0.0 **** 0.06
22599 H 63.88231846043244 79.67080141067615 15.2005727019815 H 0.0 **** 0.06
22600 H 62.35865046861519 79.24364006535774 16.014460800581332 H 0.0 **** 0.06
22601 C 11.359953855515016 51.03229699684755 9.555074628475495 C 0.0 **** -0.24
22602 H 11.321461071007832 51.49555620114583 8.569742139025522 H 0.0 **** 0.06
22603 H 12.384388336073641 50.72654187087218 9.771818415801235 H 0.0 **** 0.06
22604 H 10.708274075203462 50.159141973707165 9.57272948268411 H 0.0 **** 0.06
22605 H 11.028599100629208 51.74919127353445 10.306064352427313 H 0.0 **** 0.06
22606 C 86.22713894398674 97.9143520223524 67.93993979739219 C 0.0 **** -0.24
22607 H 85.41640039948322 98.345096198118 67.35207208135967 H 0.0 **** 0.06
22608 H 87.010830703967 97.55729625699954 67.27091032244334 H 0.0 **** 0.06
22609 H 85.84507665948973 97.08042608959695 68.52862978919137 H 0.0 **** 0.06
22610 H 86.6358362798866 98.67334476440948 68.60701510787482 H 0.0 **** 0.06
22611 C 76.825197801987 99.43564658623771 104.43442924804756 C 0.0 **** -0.24
22612 H 75.82970307709479 99.84338093512986 104.61019307105482 H 0.0 **** 0.06
22613 H 77.06209773831142 98.70826329137677 105.21107263087211 H 0.0 **** 0.06
22614 H 77.55686621587199 100.2429514518918 104.4565679105643 H 0.0 **** 0.06
22615 H 76.85144920475838 98.9479251326087 103.45914841284852 H 0.0 **** 0.06
22616 C 94.61257450841487 16.194632951059106 104.24709398551246 C 0.0 **** -0.24
22617 H 94.21467370256542 17.022553609299536 103.66039534798054 H 0.0 **** 0.06
22618 H 94.54332112353569 15.272646767821897 103.66944752209884 H 0.0 **** 0.06
22619 H 94.0380320868887 16.09213751248953 105.16691167016529 H 0.0 **** 0.06
22620 H 95.65737126214913 16.392321417387564 104.49196563846141 H 0.0 **** 0.06
22621 C 2.20880253711303 103.6942499081228 97.24862907925507 C 0.0 **** -0.24
22622 H 1.15056410182099 103.64720343104773 97.50437890385868 H 0.0 **** 0.06
22623 H 2.468810420955265 104.71476034874894 96.96531233687068 H 0.0 **** 0.06
22624 H 2.4113247761529237 103.02215263992133 96.41502549101509 H 0.0 **** 0.06
22625 H 2.8038770166589586 103.39298514403453 98.11056634727814 H 0.0 **** 0.06
22626 C 57.133515691145156 68.23011245145585 41.29991119575719 C 0.0 **** -0.24
22627 H 56.55539126135293 67.32643503914346 41.49490167931759 H 0.0 **** 0.06
22628 H 56.45460800170682 69.05826741314957 41.09694157921188 H 0.0 **** 0.06
22629 H 57.77891256509928 68.06804825302495 40.43639219937569 H 0.0 **** 0.06
22630 H 57.74492547682271 68.4652704227509 42.17163524686644 H 0.0 **** 0.06
22631 C 11.996272598030554 25.42897333027463 45.769535434734706 C 0.0 **** -0.24
22632 H 12.505726707108643 24.747534982405114 46.451332539158585 H 0.0 **** 0.06
22633 H 10.991623848786745 25.63053844872863 46.14123203028507 H 0.0 **** 0.06
22634 H 11.933931417717627 24.974715669151124 44.78078141760801 H 0.0 **** 0.06
22635 H 12.554196536724856 26.363179723159476 45.70615361040211 H 0.0 **** 0.06
22636 C 15.959318657349176 70.52724396445456 48.500742585034004 C 0.0 **** -0.24
22637 H 16.745654918972257 70.12382829272019 47.86308356950258 H 0.0 **** 0.06
22638 H 15.246262492739099 69.73795727605005 48.741315784481856 H 0.0 **** 0.06
22639 H 15.445115746136008 71.33350062727308 47.9781122226446 H 0.0 **** 0.06
22640 H 16.399293741265367 70.91264937323044 49.42031832436203 H 0.0 **** 0.06
22641 C 76.27938831672736 15.129700362863584 93.13367421657313 C 0.0 **** -0.24
22642 H 76.3452644837713 14.697578690810232 94.13257421206126 H 0.0 **** 0.06
22643 H 77.04683479577852 15.89431302101936 93.0184558187128 H 0.0 **** 0.06
22644 H 75.29446755352575 15.577639993307312 92.99660772015261 H 0.0 **** 0.06
22645 H 76.43000745785127 14.347588222005125 92.3893426662107 H 0.0 **** 0.06
22646 C 11.234394262956158 68.64804876069368 20.170881485327783 C 0.0 **** -0.24
22647 H 11.232469950993305 67.64076159525868 19.754200747299905 H 0.0 **** 0.06
22648 H 11.796784866015543 69.31159393562993 19.51315537350368 H 0.0 **** 0.06
22649 H 11.69992804467475 68.63196213180504 21.155553712103284 H 0.0 **** 0.06
22650 H 10.208390200335458 69.00651855291548 20.260224076624695 H 0.0 **** 0.06
22651 C 23.04885906853967 108.18266006137821 73.39738787689708 C 0.0 **** -0.24
22652 H 22.46084448365012 107.67092579062822 72.63547328066258 H 0.0 **** 0.06
22653 H 23.074759291721676 107.57610672372309 74.30371304074134 H 0.0 **** 0.06
22654 H 22.59277144825228 109.14796482806346 73.61881235424107 H 0.0 **** 0.06
22655 H 24.063558859428298 108.33547564964691 73.03239392551018 H 0.0 **** 0.06
22656 C 81.2251055764691 56.40050572246682 1.5313463175469764 C 0.0 **** -0.24
22657 H 82.26430422466888 56.58153716140407 1.8052600478299894 H 0.0 **** 0.06
22658 H 81.06813139611847 56.68990771331036 0.49226568615112853 H 0.0 **** 0.06
22659 H 80.57170731898805 56.99030484443378 2.175225772006357 H 0.0 **** 0.06
22660 H 80.99640135026675 55.34261583360518 1.6533390292319012 H 0.0 **** 0.06
22661 C 63.15866414155414 61.364634817114144 89.21888480856569 C 0.0 **** -0.24
22662 H 63.23646553549764 62.03522801518955 90.07386234726934 H 0.0 **** 0.06
22663 H 64.03620800382242 61.48400789692209 88.58212433456163 H 0.0 **** 0.06
22664 H 62.26101860309569 61.6049809101869 88.64891619078094 H 0.0 **** 0.06
22665 H 63.10253050749196 60.33415055325511 89.56876067964066 H 0.0 **** 0.06
22666 C 69.35315244801248 1.8971686985861798 99.80060936167303 C 0.0 **** -0.24
22667 H 69.86223000770917 0.9747989539361903 100.08097177427669 H 0.0 **** 0.06
22668 H 69.88269990572888 2.365467497233423 98.97021622666642 H 0.0 **** 0.06
22669 H 69.3361293022082 2.5767232351236053 100.65226995689494 H 0.0 **** 0.06
22670 H 68.33086239520054 1.6685178802974168 99.497756471444 H 0.0 **** 0.06
22671 C 22.166042516985698 104.03760459434312 62.14031710900508 C 0.0 **** -0.24
22672 H 21.673468493850834 105.00235962748656 62.02042756458701 H 0.0 **** 0.06
22673 H 21.922992802789565 103.39711465695103 61.29162839860106 H 0.0 **** 0.06
22674 H 21.8221006616601 103.56617912705252 63.06193801800242 H 0.0 **** 0.06
22675 H 23.24487887393093 104.18359364528317 62.187584840769716 H 0.0 **** 0.06
22676 C 38.5165594302868 84.27735809361502 107.76485746095312 C 0.0 **** -0.24
22677 H 39.5209220263497 84.34958002157717 107.34626601751776 H 0.0 **** 0.06
22678 H 38.158275956287866 85.27421270411716 108.02337022702196 H 0.0 **** 0.06
22679 H 38.54113954219444 83.65699758820028 108.66072777677843 H 0.0 **** 0.06
22680 H 37.847800649519485 83.82957175220847 107.03030044768767 H 0.0 **** 0.06
22681 C 57.82678663675313 56.20569850413705 60.64321580169596 C 0.0 **** -0.24
22682 H 57.200962099812045 55.314055841152054 60.632496657322264 H 0.0 **** 0.06
22683 H 58.49307166822314 56.192538013857444 59.780732748617936 H 0.0 **** 0.06
22684 H 58.41737246172397 56.22474818536486 61.559651020807365 H 0.0 **** 0.06
22685 H 57.19463556237304 57.09319515117525 60.60130232763635 H 0.0 **** 0.06
22686 C 103.49353022052287 114.42404828294033 112.18820951162138 C 0.0 **** -0.24
22687 H 104.53987075085453 114.70841565084503 112.07946841542878 H 0.0 **** 0.06
22688 H 103.38362783147264 113.7674278400596 113.05108667887907 H 0.0 **** 0.06
22689 H 103.16434870260136 113.90202004083454 111.2903537631402 H 0.0 **** 0.06
22690 H 102.88710353919487 115.31865910945795 112.33147899151982 H 0.0 **** 0.06
22691 C 109.87921416025304 72.78126191614564 23.404990637662877 C 0.0 **** -0.24
22692 H 110.64546449639076 72.37292025345141 22.745375200608407 H 0.0 **** 0.06
22693 H 110.25147284897315 72.79308148349665 24.429475260470383 H 0.0 **** 0.06
22694 H 108.98510050281645 72.16120054073443 23.350185940041285 H 0.0 **** 0.06
22695 H 109.63759781046903 73.79729965217086 23.093936322765728 H 0.0 **** 0.06
22696 C 38.97882138203656 10.755923426253176 5.208965736592859 C 0.0 **** -0.24
22697 H 39.47005218324091 11.334370159390819 4.425709892472014 H 0.0 **** 0.06
22698 H 39.13588361519851 11.242051299708873 6.17241068853329 H 0.0 **** 0.06
22699 H 39.40035188094254 9.75081809202414 5.236155872067457 H 0.0 **** 0.06
22700 H 37.91038788889341 10.696595397421493 5.001367507446986 H 0.0 **** 0.06
22701 C 102.42226811092613 96.71285286216025 84.81311005872735 C 0.0 **** -0.24
22702 H 101.8077333411606 96.08676352366444 85.46012948058396 H 0.0 **** 0.06
22703 H 101.91203047057525 96.86174772394011 83.86117998278814 H 0.0 **** 0.06
22704 H 103.3810760880121 96.22401518142499 84.63950139424017 H 0.0 **** 0.06
22705 H 102.58664299991887 97.67766652370608 85.29262381569697 H 0.0 **** 0.06
22706 C 71.64232382193077 14.855228429780453 50.47266190410812 C 0.0 **** -0.24
22707 H 72.27554591691609 13.970280807175612 50.41656021558396 H 0.0 **** 0.06
22708 H 71.05908038201142 14.826035899027403 51.39295796708012 H 0.0 **** 0.06
22709 H 70.96978101285376 14.875882193459745 49.61485389254182 H 0.0 **** 0.06
22710 H 72.26699473014455 15.749409541746815 50.4659940489114 H 0.0 **** 0.06
22711 C 76.7080225830342 12.691617225322773 43.74862911339585 C 0.0 **** -0.24
22712 H 76.63716029487665 12.274841065123383 42.743850956129336 H 0.0 **** 0.06
22713 H 77.74153083289653 12.63975076171883 44.09194466371167 H 0.0 **** 0.06
22714 H 76.07045777045136 12.120114532805019 44.423872627205725 H 0.0 **** 0.06
22715 H 76.38191590900448 13.731534285648479 43.73390146794358 H 0.0 **** 0.06
22716 C 111.85311270271657 31.64810436762224 3.972146690369998 C 0.0 **** -0.24
22717 H 112.09333277433294 32.640404235698895 3.5915455826864804 H 0.0 **** 0.06
22718 H 112.476090807005 30.907025961199224 3.4714381554916116 H 0.0 **** 0.06
22719 H 110.80262353540377 31.42988138544655 3.780725200978109 H 0.0 **** 0.06
22720 H 112.04088805910885 31.615725654021105 5.046053150754233 H 0.0 **** 0.06
22721 C 96.77975830075906 52.81887135634191 19.005971165093058 C 0.0 **** -0.24
22722 H 96.24960999768979 52.03054415370789 19.540562574836173 H 0.0 **** 0.06
22723 H 96.21942352661279 53.09221273307364 18.111839518533856 H 0.0 **** 0.06
22724 H 97.76946984673265 52.4622793569789 18.720212208785995 H 0.0 **** 0.06
22725 H 96.88013690468216 53.69037490807591 19.65262690075693 H 0.0 **** 0.06
22726 C 8.153635281637747 104.52925621803789 90.28074069187116 C 0.0 **** -0.24
22727 H 7.111723857109439 104.57746349896206 90.59654376284897 H 0.0 **** 0.06
22728 H 8.290891239392266 105.1376168506628 89.38673783243487 H 0.0 **** 0.06
22729 H 8.420324441036655 103.4952380036504 90.06277469957598 H 0.0 **** 0.06
22730 H 8.792525816858657 104.90873632085896 91.0795572090131 H 0.0 **** 0.06
22731 C 10.843846301179656 3.1014113940099577 65.88247583598121 C 0.0 **** -0.24
22732 H 11.77916027185723 2.851812378068951 66.3819545492702 H 0.0 **** 0.06
22733 H 11.057621950116229 3.6431420799110192 64.9608572449682 H 0.0 **** 0.06
22734 H 10.237483096281352 3.726998403043952 66.5388199705805 H 0.0 **** 0.06
22735 H 10.300281699628915 2.185922345454369 65.64884301522534 H 0.0 **** 0.06
22736 C 76.21741544037567 57.558677336478304 46.50197923665422 C 0.0 **** -0.24
22737 H 75.1408954466564 57.59889994699734 46.66950785409449 H 0.0 **** 0.06
22738 H 76.7283022606903 58.120512229984676 47.28378238427234 H 0.0 **** 0.06
22739 H 76.45051339716628 57.993115227407024 45.53077435472363 H 0.0 **** 0.06
22740 H 76.54980087442928 56.5200522787135 46.52451747888915 H 0.0 **** 0.06
22741 C 81.81631732835169 115.80569544565603 98.67263745098782 C 0.0 **** -0.24
22742 H 82.5243831687562 116.61770479008817 98.5109418002425 H 0.0 **** 0.06
22743 H 82.06441915078165 115.28542208883263 99.59789800850425 H 0.0 **** 0.06
22744 H 81.86841068437357 115.10727070527179 97.8375751094149 H 0.0 **** 0.06
22745 H 80.80668437515806 116.2121135010172 98.7439236153844 H 0.0 **** 0.06
22746 C 65.08403061113472 17.226660491947264 75.71387310947983 C 0.0 **** -0.24
22747 H 65.3470890238076 16.449325892111684 74.99587575085243 H 0.0 **** 0.06
22748 H 65.98960027038333 17.731528296952945 76.0513862220237 H 0.0 **** 0.06
22749 H 64.5784817733375 16.776143282477328 76.56859039548647 H 0.0 **** 0.06
22750 H 64.42001632172486 17.94948828788893 75.23932174800254 H 0.0 **** 0.06
22751 C 99.95985896799792 98.81968247285019 93.13799730002444 C 0.0 **** -0.24
22752 H 99.12170935686649 98.7240390228516 93.82834614818859 H 0.0 **** 0.06
22753 H 99.76571887523465 98.22622020422332 92.24510197016684 H 0.0 **** 0.06
22754 H 100.86923312578412 98.46211491448764 93.62110189909325 H 0.0 **** 0.06
22755 H 100.0836265056594 99.86667587130825 92.86062858246521 H 0.0 **** 0.06
22756 C 93.50001889903581 93.61147214799996 115.0434158951781 C 0.0 **** -0.24
22757 H 93.06887160238048 93.17050754905864 115.94235539000233 H 0.0 **** 0.06
22758 H 93.61169751369789 94.6867361466424 115.18506765814996 H 0.0 **** 0.06
22759 H 92.8415229324707 93.42239479691227 114.19553336060227 H 0.0 **** 0.06
22760 H 94.47640222800666 93.16602917448054 114.85256485030682 H 0.0 **** 0.06
22761 C 104.33438336649888 8.289375583378046 86.65866752849078 C 0.0 **** -0.24
22762 H 103.70674245879772 7.822498542656774 87.41740045577527 H 0.0 **** 0.06
22763 H 104.08313175325017 9.347515390462831 86.58144202478283 H 0.0 **** 0.06
22764 H 104.16441438865408 7.80426526109855 85.69770839220644 H 0.0 **** 0.06
22765 H 105.38262212303425 8.182632621923716 86.93863260205003 H 0.0 **** 0.06
22766 C 48.50363097039448 88.92763530476873 70.56804188402452 C 0.0 **** -0.24
22767 H 48.46442665259215 88.44877989629057 71.54601296540227 H 0.0 **** 0.06
22768 H 47.49866427131079 88.9810894143759 70.14900062700733 H 0.0 **** 0.06
22769 H 49.14421896409422 88.34660085802386 69.90473430126735 H 0.0 **** 0.06
22770 H 48.90815686157603 89.93497282856165 70.67296545572498 H 0.0 **** 0.06
22771 C 55.55128841658908 69.8150122550044 69.73959274922322 C 0.0 **** -0.24
22772 H 55.238659587434604 70.15728050030134 68.75381714407604 H 0.0 **** 0.06
22773 H 54.899120511464716 69.00443692917258 70.06712094438262 H 0.0 **** 0.06
22774 H 55.48724967569355 70.64074648847452 70.44797397405034 H 0.0 **** 0.06
22775 H 56.580080323897896 69.45736768568537 69.69043407027561 H 0.0 **** 0.06
22776 C 66.18427057126053 11.259319808404797 31.000617920330598 C 0.0 **** -0.24
22777 H 66.10726275610034 10.498384210786412 31.777725905972687 H 0.0 **** 0.06
22778 H 67.2005242442259 11.652465283819538 30.977551517276083 H 0.0 **** 0.06
22779 H 65.48523676659107 12.068281569821622 31.213743696022192 H 0.0 **** 0.06
22780 H 65.94313360787771 10.81646641523983 30.03401312482964 H 0.0 **** 0.06
22781 C 69.66267488442912 81.8034256349614 113.74756548113756 C 0.0 **** -0.24
22782 H 69.63777368380829 81.55899417907403 112.68585830444182 H 0.0 **** 0.06
22783 H 68.93053368839486 81.19307279700968 114.27759069561093 H 0.0 **** 0.06
22784 H 69.42498344852066 82.85747568141 113.88363577942711 H 0.0 **** 0.06
22785 H 70.65805023495511 81.60132033749616 114.14245191257923 H 0.0 **** 0.06
22786 C 16.198165943315885 93.91428959893886 72.48301843798976 C 0.0 **** -0.24
22787 H 16.669423678182675 94.82737447817001 72.11860089550993 H 0.0 **** 0.06
22788 H 16.858283901817977 93.42805965446954 73.20162105006943 H 0.0 **** 0.06
22789 H 16.012904099743935 93.24225477184325 71.64626692776386 H 0.0 **** 0.06
22790 H 15.253313222326486 94.16189969963966 72.96745685083062 H 0.0 **** 0.06
22791 C 32.2448879838832 80.5681922880739 81.87365924859219 C 0.0 **** -0.24
22792 H 31.264008742327974 80.23022715604077 81.53809331255187 H 0.0 **** 0.06
22793 H 32.387272515393676 80.29001926710595 82.91820432525373 H 0.0 **** 0.06
22794 H 32.30825398327953 81.65247342453401 81.77313447433238 H 0.0 **** 0.06
22795 H 33.01787142804852 80.10172115610763 81.26393868052781 H 0.0 **** 0.06
22796 C 99.27668278045513 5.5222905890855145 14.383623769155577 C 0.0 **** -0.24
22797 H 99.56352969912373 6.111883327068199 13.513573688216823 H 0.0 **** 0.06
22798 H 99.98960314751008 4.70945881479787 14.522519522789352 H 0.0 **** 0.06
22799 H 98.27997851752218 5.109456682581424 14.229653929386558 H 0.0 **** 0.06
22800 H 99.27361975766459 6.1583635318945085 15.26874793622963 H 0.0 **** 0.06
22801 C 36.23199210432685 108.55920296453347 14.520925166679529 C 0.0 **** -0.24
22802 H 37.19915931664825 109.05564352397515 14.440387386040111 H 0.0 **** 0.06
22803 H 36.37115056115478 107.48076652124016 14.447715150405767 H 0.0 **** 0.06
22804 H 35.582709877269934 108.89830817374855 13.713378730770984 H 0.0 **** 0.06
22805 H 35.777022221171734 108.80370226835953 15.480454960223884 H 0.0 **** 0.06
22806 C 111.04986194402468 69.72543406571276 82.56087728933238 C 0.0 **** -0.24
22807 H 111.89468812909669 69.50290705753079 81.90794888757688 H 0.0 **** 0.06
22808 H 111.14176220975394 70.74347573239743 82.93897840628136 H 0.0 **** 0.06
22809 H 111.04413360742875 69.02633214720737 83.3972179299056 H 0.0 **** 0.06
22810 H 110.12101926432013 69.62856144503931 81.99898590958875 H 0.0 **** 0.06
22811 C 55.79416307598388 58.951036742740605 115.96285766796352 C 0.0 **** -0.24
22812 H 55.04284119979682 58.1726885717061 116.09449543374299 H 0.0 **** 0.06
22813 H 56.644940753985644 58.54513481953456 115.41634976578868 H 0.0 **** 0.06
22814 H 56.12420562729783 59.304480443392514 116.94047646706586 H 0.0 **** 0.06
22815 H 55.363758326636045 59.780524920477724 115.40264697202356 H 0.0 **** 0.06
22816 C 19.85053183646113 86.08608930213663 91.51364404939463 C 0.0 **** -0.24
22817 H 20.699809983835877 86.40427533346738 92.11817794906179 H 0.0 **** 0.06
22818 H 18.962764377394194 86.016413657252 92.14264821404171 H 0.0 **** 0.06
22819 H 20.06181605170741 85.11044824218004 91.07574853965059 H 0.0 **** 0.06
22820 H 19.67821422945903 86.8112886174425 90.71902244229426 H 0.0 **** 0.06
22821 C 23.480978718660523 41.71909341164471 81.9848888766914 C 0.0 **** -0.24
22822 H 23.685234090261815 40.790956184247534 82.51755662061214 H 0.0 **** 0.06
22823 H 24.328199928051546 41.96514748300916 81.3452752881272 H 0.0 **** 0.06
22824 H 23.321165217499455 42.52237323568693 82.7035070525381 H 0.0 **** 0.06
22825 H 22.586565105384636 41.59675498468695 81.37357913992145 H 0.0 **** 0.06
22826 C 93.02278097037845 29.924743341325097 8.20748425227012 C 0.0 **** -0.24
22827 H 92.41745051019524 29.157838956496178 7.7227907979967085 H 0.0 **** 0.06
22828 H 92.38964819862753 30.533839226971068 8.852325345783868 H 0.0 **** 0.06
22829 H 93.48386029077159 30.556180086116804 7.4476596053214905 H 0.0 **** 0.06
22830 H 93.80024682550453 29.448194655840297 8.804823498467798 H 0.0 **** 0.06
22831 C 49.614632305081614 68.14829228845653 56.13196372580857 C 0.0 **** -0.24
22832 H 50.16284720729098 67.40484337668946 55.55318647177492 H 0.0 **** 0.06
22833 H 48.54480656019555 67.95316541091881 56.05465673958499 H 0.0 **** 0.06
22834 H 49.83288748922419 69.14313290402438 55.74313623925085 H 0.0 **** 0.06
22835 H 49.920220476555585 68.09191951782435 57.17680819017642 H 0.0 **** 0.06
22836 C 30.761771434288164 87.22805625982247 102.36983685348645 C 0.0 **** -0.24
22837 H 30.46604575242816 86.18337549481026 102.46616641753445 H 0.0 **** 0.06
22838 H 30.31350010974643 87.80782931461667 103.17774531881108 H 0.0 **** 0.06
22839 H 30.4175205783298 87.61465835824959 101.41051618737418 H 0.0 **** 0.06
22840 H 31.847516891621638 87.30501232149405 102.42587719895431 H 0.0 **** 0.06
22841 C 47.77615410572443 110.4781188837625 15.426601495825029 C 0.0 **** -0.24
22842 H 48.04614793374992 109.5778570481813 15.979260491941364 H 0.0 **** 0.06
22843 H 48.48395764533325 110.62901935717684 14.611226005485435 H 0.0 **** 0.06
22844 H 47.804977099956034 111.33772960611947 16.096064412624806 H 0.0 **** 0.06
22845 H 46.771073517353955 110.36709338643885 15.02001903324864 H 0.0 **** 0.06
22846 C 96.7783705904624 78.9975016614386 0.06577391942518318 C 0.0 **** -0.24
22847 H 96.29294479210174 79.96175494274507 0.21922560370811262 H 0.0 **** 0.06
22848 H 96.14462004248256 78.36728334533794 -0.5586491086972609 H 0.0 **** 0.06
22849 H 96.93756216567704 78.51348911926249 1.029043783813691 H 0.0 **** 0.06
22850 H 97.73883641654055 79.14972488422714 -0.42737666291264986 H 0.0 **** 0.06
22851 C 22.505691336761135 16.568251205047364 26.59224648396463 C 0.0 **** -0.24
22852 H 22.34870313073896 17.451737061797328 25.972929564509798 H 0.0 **** 0.06
22853 H 21.713764007187585 15.844380825072832 26.398812337147945 H 0.0 **** 0.06
22854 H 22.48876832087082 16.853746291982695 27.643841513262657 H 0.0 **** 0.06
22855 H 23.47129138160428 16.12426384912127 26.351483716856535 H 0.0 **** 0.06
22856 C 18.323472579640026 36.742618485253274 79.326739676561 C 0.0 **** -0.24
22857 H 17.941185716294484 35.790587920709015 78.95731637675118 H 0.0 **** 0.06
22858 H 18.950436404764503 37.202397799621565 78.56314667138327 H 0.0 **** 0.06
22859 H 18.913459847217467 36.57094952064648 80.22713668104592 H 0.0 **** 0.06
22860 H 17.488010511764827 37.40312146190803 79.5601876458309 H 0.0 **** 0.06
22861 C 46.698583676510054 24.901582267674314 113.67276026811562 C 0.0 **** -0.24
22862 H 46.715239660880314 23.84398197763835 113.93611776830785 H 0.0 **** 0.06
22863 H 47.357989745961504 25.45314038903433 114.34402275630228 H 0.0 **** 0.06
22864 H 45.681659230870395 25.2837528708597 113.7657995628083 H 0.0 **** 0.06
22865 H 47.04024100595447 25.024848404724764 112.64514084258732 H 0.0 **** 0.06
22866 C 93.58032601693557 73.87617651971149 7.418883743236904 C 0.0 **** -0.24
22867 H 93.12430929067693 74.75805753338756 7.8702767703248355 H 0.0 **** 0.06
22868 H 93.63595145516061 74.00886366203287 6.3382043619301385 H 0.0 **** 0.06
22869 H 92.97573248620986 72.99813809153162 7.647956212640679 H 0.0 **** 0.06
22870 H 94.58424073351372 73.74080933438137 7.820969451918671 H 0.0 **** 0.06
22871 C 12.555356250630581 105.98802169059334 84.64561704488736 C 0.0 **** -0.24
22872 H 12.900118562178136 106.80858168116379 84.01634109628571 H 0.0 **** 0.06
22873 H 11.96087868531302 106.38587934989707 85.4682571190458 H 0.0 **** 0.06
22874 H 13.416383430019465 105.45097999844765 85.04488818856939 H 0.0 **** 0.06
22875 H 11.94576659006205 105.30676854558371 84.05284431917289 H 0.0 **** 0.06
22876 C 61.968170315126834 67.68839204728732 89.87337938843058 C 0.0 **** -0.24
22877 H 62.241221700265875 66.70891968716813 90.26620098868736 H 0.0 **** 0.06
22878 H 62.06034550668655 68.43382421059124 90.6637044029141 H 0.0 **** 0.06
22879 H 60.93922894283039 67.66283242126343 89.51603884636984 H 0.0 **** 0.06
22880 H 62.63369340835826 67.94727266060494 89.04985658528861 H 0.0 **** 0.06
22881 C 20.564493652478944 18.715612238621304 39.88572606906737 C 0.0 **** -0.24
22882 H 19.968196923066728 17.880358844478792 40.2523879263651 H 0.0 **** 0.06
22883 H 20.911465850810117 18.499404462852908 38.875585770550906 H 0.0 **** 0.06
22884 H 21.42250943972482 18.864225505618606 40.54163230739753 H 0.0 **** 0.06
22885 H 19.954937246148774 19.6202666902513 39.874708323454044 H 0.0 **** 0.06
22886 C 115.41938193362559 94.0758125262796 76.00452088263899 C 0.0 **** -0.24
22887 H 115.64239087200292 95.12158010601152 75.79475171162551 H 0.0 **** 0.06
22888 H 115.54407686383314 93.88445996202887 77.06996224234291 H 0.0 **** 0.06
22889 H 116.09889796627992 93.43891798030927 75.43756647066465 H 0.0 **** 0.06
22890 H 114.39076997429041 93.85875634095026 75.71411582861711 H 0.0 **** 0.06
22891 C 99.45919458034007 11.360974449832543 69.46001194641252 C 0.0 **** -0.24
22892 H 99.20785552860463 10.319635817855549 69.66324960052123 H 0.0 **** 0.06
22893 H 98.54734356869852 11.919270571063198 69.24713601787485 H 0.0 **** 0.06
22894 H 100.12683327306127 11.411907607151878 68.60005012095405 H 0.0 **** 0.06
22895 H 99.95434698471962 11.79177070412404 70.32995367866201 H 0.0 **** 0.06
22896 C 89.08539051766408 10.068021378065794 106.75482692573925 C 0.0 **** -0.24
22897 H 88.57886518479688 10.901839074052788 107.24079718778506 H 0.0 **** 0.06
22898 H 89.34568563988654 10.347100658643242 105.7330357228621 H 0.0 **** 0.06
22899 H 88.42452468170225 9.201529453229426 106.73677025675366 H 0.0 **** 0.06
22900 H 89.99196070688919 9.822447038918057 107.30669613298875 H 0.0 **** 0.06
22901 C 57.68102378602407 3.461745168109516 19.330248407764145 C 0.0 **** -0.24
22902 H 56.592224419660965 3.4257948504587716 19.349047963314604 H 0.0 **** 0.06
22903 H 58.014113890234654 4.485651616272406 19.502063939035736 H 0.0 **** 0.06
22904 H 58.03923763005545 3.1211349286510455 18.359000526933926 H 0.0 **** 0.06
22905 H 58.078881236081685 2.813882697008623 20.111657175987034 H 0.0 **** 0.06
22906 C 16.201566773103195 18.810216741919078 63.450454601931604 C 0.0 **** -0.24
22907 H 15.627123960871785 17.929627556270532 63.16289920326104 H 0.0 **** 0.06
22908 H 17.182985519894203 18.774409527327805 62.97777179073393 H 0.0 **** 0.06
22909 H 16.31912900219197 18.829313948455734 64.53334993918506 H 0.0 **** 0.06
22910 H 15.675097119692282 19.70829374003401 63.12698220904117 H 0.0 **** 0.06
22911 C 1.5452438221388451 75.44642192212606 72.56284629226701 C 0.0 **** -0.24
22912 H 2.07165507712914 75.76236551436469 73.46386174189561 H 0.0 **** 0.06
22913 H 0.5231382277480563 75.824339510508 72.5887773719418 H 0.0 **** 0.06
22914 H 1.530162842974347 74.35778262678059 72.51292636032872 H 0.0 **** 0.06
22915 H 2.057391326346611 75.84289014044549 71.68530886552622 H 0.0 **** 0.06
22916 C 88.89568347218398 18.58199081891331 99.77394313821443 C 0.0 **** -0.24
22917 H 88.13110789313669 18.472582267665615 100.54352546569888 H 0.0 **** 0.06
22918 H 89.23312583933455 17.59661838099464 99.45425937242535 H 0.0 **** 0.06
22919 H 89.73811534959765 19.142955087445728 100.17743109686987 H 0.0 **** 0.06
22920 H 88.4775184240874 19.11751106789069 98.92149605316757 H 0.0 **** 0.06
22921 C 26.234356763808506 36.24068386013724 107.3296142241413 C 0.0 **** -0.24
22922 H 25.712516616683274 37.1836218432089 107.49345804404447 H 0.0 **** 0.06
22923 H 25.51288589830608 35.42339728528057 107.32325543614635 H 0.0 **** 0.06
22924 H 26.956222416163826 36.08175612736895 108.13062415728797 H 0.0 **** 0.06
22925 H 26.754137107517835 36.27512650472184 106.37332559992137 H 0.0 **** 0.06
22926 C 104.72046532728862 35.21186510694716 62.26273788040748 C 0.0 **** -0.24
22927 H 103.69844305249569 35.54039737700904 62.074841730335386 H 0.0 **** 0.06
22928 H 104.70636927355426 34.21248081740161 62.698039303350136 H 0.0 **** 0.06
22929 H 105.2033367933094 35.90314512481291 62.953541801671115 H 0.0 **** 0.06
22930 H 105.27237114056263 35.1912854072664 61.32305260840548 H 0.0 **** 0.06
22931 C 34.02362587584677 5.97491523670061 40.06573210108416 C 0.0 **** -0.24
22932 H 33.62854337039825 6.345621088576394 41.0110796022013 H 0.0 **** 0.06
22933 H 35.066168622692146 6.277407265097139 39.964001100955784 H 0.0 **** 0.06
22934 H 33.44285164266494 6.390339043251373 39.241759190610644 H 0.0 **** 0.06
22935 H 33.957662136461664 4.887094117290019 40.0447329318344 H 0.0 **** 0.06
22936 C 62.88747724682764 4.657621210295119 72.9112173742937 C 0.0 **** -0.24
22937 H 62.03434166743824 4.2517102655159675 73.45392714698446 H 0.0 **** 0.06
22938 H 63.040863382515454 5.6980201391153 73.20025856306134 H 0.0 **** 0.06
22939 H 62.695004805877886 4.601969544778427 71.83896352396903 H 0.0 **** 0.06
22940 H 63.77912231961062 4.078388876708189 73.14984657899814 H 0.0 **** 0.06
22941 C 66.76900171833111 114.1442111630145 71.60625921971382 C 0.0 **** -0.24
22942 H 66.38886726395876 113.78081845773593 70.65129402266723 H 0.0 **** 0.06
22943 H 65.93241074843567 114.39833936178972 72.25663859792081 H 0.0 **** 0.06
22944 H 67.38239027329678 115.02934772048512 71.43981198859103 H 0.0 **** 0.06
22945 H 67.37221369328796 113.36645681195071 72.07662775485403 H 0.0 **** 0.06
22946 C 17.59680998086077 112.47854621575743 31.90614486085616 C 0.0 **** -0.24
22947 H 17.746973201004295 111.40204276748587 31.82486575301499 H 0.0 **** 0.06
22948 H 16.848207104939704 112.68432569347581 32.670720861674965 H 0.0 **** 0.06
22949 H 17.254912608187027 112.87106203981479 30.947656691796453 H 0.0 **** 0.06
22950 H 18.537334420819462 112.95601527701163 32.1794871204072 H 0.0 **** 0.06
22951 C 18.79504332557687 85.73843926799901 83.66978816909983 C 0.0 **** -0.24
22952 H 19.633696331031302 85.68353886804258 84.36442627102434 H 0.0 **** 0.06
22953 H 17.85884713672519 85.71495608145815 84.22835173197205 H 0.0 **** 0.06
22954 H 18.833577082053722 84.89056975325232 82.98667592544558 H 0.0 **** 0.06
22955 H 18.85585855663939 86.66635417861454 83.10110513531976 H 0.0 **** 0.06
22956 C 101.03978466769993 5.442762696600056 61.21154494745508 C 0.0 **** -0.24
22957 H 101.61611495941082 5.925615243648153 60.42245701202404 H 0.0 **** 0.06
22958 H 101.712628540966 4.884531623114256 61.86227464397891 H 0.0 **** 0.06
22959 H 100.31553592039597 4.76073066568722 60.76569289969569 H 0.0 **** 0.06
22960 H 100.51614438588689 6.20018351491629 61.79366988790812 H 0.0 **** 0.06
22961 C 51.80054078479509 83.28268199106702 71.62419781722528 C 0.0 **** -0.24
22962 H 51.27452240868631 82.71396330385937 72.3907659279532 H 0.0 **** 0.06
22963 H 52.08849618659974 82.61693674163558 70.81015669106478 H 0.0 **** 0.06
22964 H 52.69294289214638 83.73571052042308 72.05641606604652 H 0.0 **** 0.06
22965 H 51.146547936369245 84.06644044039462 71.24014822089785 H 0.0 **** 0.06
22966 C 50.65844708598672 112.84252061822869 14.726626883329743 C 0.0 **** -0.24
22967 H 50.90494090942485 113.64596336454652 14.031932303816234 H 0.0 **** 0.06
22968 H 50.93237145840368 113.14039944984006 15.739460873685886 H 0.0 **** 0.06
22969 H 51.208175444551955 111.9429062965887 14.450433561136236 H 0.0 **** 0.06
22970 H 49.58833621048029 112.64194733444737 14.683371975549903 H 0.0 **** 0.06
22971 C 46.53012730481094 99.5990289757247 17.202299390511115 C 0.0 **** -0.24
22972 H 46.75364011034624 99.76110364378627 16.148435205405 H 0.0 **** 0.06
22973 H 45.45966182398245 99.43539642397667 17.32612992808368 H 0.0 **** 0.06
22974 H 46.83397978197781 100.4750645306462 17.776208271695122 H 0.0 **** 0.06
22975 H 47.0754302404137 98.72516715806228 17.559301094878105 H 0.0 **** 0.06
22976 C 44.313371550249514 44.64052615902224 68.61310699671071 C 0.0 **** -0.24
22977 H 43.46147148720462 44.46166351178921 69.26908443320656 H 0.0 **** 0.06
22978 H 44.726017449147946 43.68588138204101 68.28475390206387 H 0.0 **** 0.06
22979 H 45.07639116688091 45.19993992225861 69.15416638250966 H 0.0 **** 0.06
22980 H 43.98929098307269 45.213837739820626 67.74496095984145 H 0.0 **** 0.06
22981 C 52.30765581115091 30.05010386894753 54.05024821116074 C 0.0 **** -0.24
22982 H 53.037485320969154 29.90276030238789 53.25324017405527 H 0.0 **** 0.06
22983 H 52.57619441540899 29.43230448941472 54.90725983242061 H 0.0 **** 0.06
22984 H 51.31807314626505 29.76465047051738 53.69180639179047 H 0.0 **** 0.06
22985 H 52.29859337555283 31.09948223884703 54.34561391404997 H 0.0 **** 0.06
22986 C 26.488301936454846 71.25870584769217 11.280105504996207 C 0.0 **** -0.24
22987 H 27.073053324947516 70.33959931452762 11.249074333727165 H 0.0 **** 0.06
22988 H 25.944014938029213 71.3747844828562 10.342943633792249 H 0.0 **** 0.06
22989 H 27.156290244062447 72.1097503145352 11.421335943642795 H 0.0 **** 0.06
22990 H 25.780574382588576 71.21144461086425 12.108447896543563 H 0.0 **** 0.06
22991 C 43.880097111683114 14.432354572008336 60.6147097863173 C 0.0 **** -0.24
22992 H 43.582055646230714 15.292654865999651 61.213001173839764 H 0.0 **** 0.06
22993 H 44.54588630412732 14.7584262818053 59.81515991195831 H 0.0 **** 0.06
22994 H 42.99475154451565 13.9653532895218 60.18386066827258 H 0.0 **** 0.06
22995 H 44.398596723105186 13.711763591574993 61.24874044204824 H 0.0 **** 0.06
22996 C 56.79540699530816 12.332284358964149 99.81315054391638 C 0.0 **** -0.24
22997 H 57.032274521930425 13.145252445419995 100.49877403570343 H 0.0 **** 0.06
22998 H 55.97822542168701 11.738582777000381 100.22233467014735 H 0.0 **** 0.06
22999 H 57.67417810548414 11.700522869518096 99.68166383953059 H 0.0 **** 0.06
23000 H 56.49811530973012 12.74584910492683 98.84912416548269 H 0.0 **** 0.06
23001 C 98.22404362689778 39.40669794568083 71.23510440742658 C 0.0 **** -0.24
23002 H 98.85510994973518 39.984466301433656 71.91165897753208 H 0.0 **** 0.06
23003 H 97.18613060335372 39.47150882684207 71.5635159496641 H 0.0 **** 0.06
23004 H 98.54441856063096 38.365092341112444 71.24163157548242 H 0.0 **** 0.06
23005 H 98.31134618103198 39.808246866071585 70.22532783925888 H 0.0 **** 0.06
23006 C 91.41867746271453 52.3323978577815 12.652430433119786 C 0.0 **** -0.24
23007 H 90.78711352970097 53.20637780116479 12.81167559205053 H 0.0 **** 0.06
23008 H 91.22564001344452 51.91983826968607 11.662688025141797 H 0.0 **** 0.06
23009 H 91.19561718999327 51.581072465559004 13.410353430058723 H 0.0 **** 0.06
23010 H 92.46623638787813 52.62359384864368 12.727710864635448 H 0.0 **** 0.06
23011 C 28.42869930348388 53.070571768727746 113.26863281507252 C 0.0 **** -0.24
23012 H 27.62673864551863 52.985891787802075 112.53502774995849 H 0.0 **** 0.06
23013 H 28.02452604740347 53.45476033904481 114.20576095386639 H 0.0 **** 0.06
23014 H 29.192749822144492 53.751934852654756 112.89512768106673 H 0.0 **** 0.06
23015 H 28.8692726854116 52.08808011713961 113.43892442347976 H 0.0 **** 0.06
23016 C 43.98039896471269 25.959329824149215 111.17436411915357 C 0.0 **** -0.24
23017 H 43.483821273736595 26.750708203652735 111.73631594525554 H 0.0 **** 0.06
23018 H 45.047487877699666 25.972317498079242 111.39541052726459 H 0.0 **** 0.06
23019 H 43.828005025044234 26.121633018299946 110.10761499598445 H 0.0 **** 0.06
23020 H 43.56075090977271 24.994458490989217 111.45876661172863 H 0.0 **** 0.06
23021 C 65.74706023870803 37.369295826075216 34.378331599702165 C 0.0 **** -0.24
23022 H 66.41202167529829 36.55704809087203 34.67296171702384 H 0.0 **** 0.06
23023 H 65.84771790688723 37.55166089580598 33.30818347458927 H 0.0 **** 0.06
23024 H 66.01070550396628 38.272333915248225 34.92860365106628 H 0.0 **** 0.06
23025 H 64.71580139390068 37.09432210366279 34.60442391571496 H 0.0 **** 0.06
23026 C 69.56289775930932 30.095211390783156 0.09255367584060537 C 0.0 **** -0.24
23027 H 70.64347458529576 29.987373489089364 0.18430688647282523 H 0.0 **** 0.06
23028 H 69.1254456023043 29.138846832307493 -0.19639179871981582 H 0.0 **** 0.06
23029 H 69.33620445163947 30.84378787231298 -0.6669892086054006 H 0.0 **** 0.06
23030 H 69.14646639799778 30.41083736942265 1.0492888242145568 H 0.0 **** 0.06
23031 C 33.80386470778839 105.64324064941493 79.80050288801795 C 0.0 **** -0.24
23032 H 34.139957097034 105.26552847585867 78.83484073871631 H 0.0 **** 0.06
23033 H 33.24516783155255 106.56730522379232 79.65544990229225 H 0.0 **** 0.06
23034 H 34.66896155095762 105.83760822366804 80.43510726023663 H 0.0 **** 0.06
23035 H 33.16378127241441 104.90155303511926 80.27811741189171 H 0.0 **** 0.06
23036 C 61.50211093500184 106.44380081729784 14.933497994458406 C 0.0 **** -0.24
23037 H 62.103658947093294 106.15593954491337 15.794686557848337 H 0.0 **** 0.06
23038 H 61.84549668425905 107.40627033971097 14.55564544533189 H 0.0 **** 0.06
23039 H 60.4553612174104 106.52236469307073 15.231022520360852 H 0.0 **** 0.06
23040 H 61.601121337974405 105.68891218254706 14.153065363657646 H 0.0 **** 0.06
23041 C 36.338145332579586 114.28453001814057 111.80780276863068 C 0.0 **** -0.24
23042 H 36.810631813834625 113.90302059941806 110.90290496971757 H 0.0 **** 0.06
23043 H 35.25890453503034 114.14555020812418 111.7393490114506 H 0.0 **** 0.06
23044 H 36.561775994018326 115.34584029082197 111.91334785097345 H 0.0 **** 0.06
23045 H 36.72087085829266 113.74483816020108 112.67372066556112 H 0.0 **** 0.06
23046 C 38.345913195504096 27.22020583083369 17.522757740991025 C 0.0 **** -0.24
23047 H 38.17846318162083 26.14535260390224 17.45742038141887 H 0.0 **** 0.06
23048 H 38.193634223394724 27.549897578741053 18.55051376023522 H 0.0 **** 0.06
23049 H 37.64384942545058 27.73615338792345 16.867628320745624 H 0.0 **** 0.06
23050 H 39.36592910015955 27.448729407732912 17.213930135168653 H 0.0 **** 0.06
23051 C 77.75707551269906 98.35694998336476 68.23702033051921 C 0.0 **** -0.24
23052 H 77.70597056030832 97.3574871820648 68.6688644616035 H 0.0 **** 0.06
23053 H 76.78078153941689 98.83712542978014 68.31669277023167 H 0.0 **** 0.06
23054 H 78.04144183978991 98.28399632474441 67.18766982866731 H 0.0 **** 0.06
23055 H 78.4982775324761 98.94703533729103 68.77480349329193 H 0.0 **** 0.06
23056 C 97.40083864067876 46.21321359513021 1.6734700362277692 C 0.0 **** -0.24
23057 H 98.14484408920677 45.455458574868516 1.429572237859574 H 0.0 **** 0.06
23058 H 97.77227454124426 47.19561426765128 1.3794915731686217 H 0.0 **** 0.06
23059 H 97.21021173868127 46.20287644353263 2.746909614655948 H 0.0 **** 0.06
23060 H 96.47575016361597 45.9997257711824 1.1384081724727366 H 0.0 **** 0.06
23061 C 109.26366146112227 109.50253085097685 87.11761556870857 C 0.0 **** -0.24
23062 H 108.7776488720765 110.47606230942324 87.0596571077794 H 0.0 **** 0.06
23063 H 110.18512252988378 109.59061834952755 87.69422213092986 H 0.0 **** 0.06
23064 H 109.4960473034852 109.15147467733695 86.11200462435988 H 0.0 **** 0.06
23065 H 108.59632571253076 108.79204600177655 87.6058995729382 H 0.0 **** 0.06
23066 C 116.40570177561769 59.50097525424863 57.829190860702624 C 0.0 **** -0.24
23067 H 117.02387947886172 59.351848916099556 56.944514328975856 H 0.0 **** 0.06
23068 H 115.8705309255096 60.446365566132215 57.74387235867522 H 0.0 **** 0.06
23069 H 117.03933949074926 59.520979651727686 58.71601499767593 H 0.0 **** 0.06
23070 H 115.69004949162864 58.683488915656085 57.913599561819154 H 0.0 **** 0.06
23071 C 59.69102483299761 76.79557449927864 41.588703976506 C 0.0 **** -0.24
23072 H 59.29957332088961 75.7784534063997 41.558764135566975 H 0.0 **** 0.06
23073 H 60.54752993412157 76.83539144200205 42.26229185852091 H 0.0 **** 0.06
23074 H 58.91527058645056 77.47354130645334 41.94487996360175 H 0.0 **** 0.06
23075 H 60.00259248455956 77.09375941742348 40.586899901201576 H 0.0 **** 0.06
23076 C 60.6024064376636 28.955948062170762 64.15685902704993 C 0.0 **** -0.24
23077 H 61.62977976544323 28.68321479521427 63.91582672964231 H 0.0 **** 0.06
23078 H 59.99330902508615 28.053572778587522 64.22171452191577 H 0.0 **** 0.06
23079 H 60.20661810726716 29.606855631552435 63.37845502467305 H 0.0 **** 0.06
23080 H 60.58076683432583 29.478453789895525 65.11376524928085 H 0.0 **** 0.06
23081 C 52.56473352769211 104.35844924297771 86.49153010920298 C 0.0 **** -0.24
23082 H 53.518142108577365 103.84321029303891 86.61064727547779 H 0.0 **** 0.06
23083 H 51.75702370237423 103.71167275114689 86.83375658010772 H 0.0 **** 0.06
23084 H 52.413849135173564 104.60333323852251 85.43940046535286 H 0.0 **** 0.06
23085 H 52.57168021706951 105.27552765329199 87.07988786465222 H 0.0 **** 0.06
23086 C 92.06120076033176 11.553663681732985 52.373519030516576 C 0.0 **** -0.24
23087 H 92.98688830206783 11.416426573783838 52.933024665666466 H 0.0 **** 0.06
23088 H 92.00058683036664 12.582446992315113 52.018498162095256 H 0.0 **** 0.06
23089 H 91.21141752273707 11.341711545917462 53.02153418565018 H 0.0 **** 0.06
23090 H 92.0471072131053 10.874314137422061 51.521731800800524 H 0.0 **** 0.06
23091 C 110.28211251566371 51.734288919072185 13.690120021304978 C 0.0 **** -0.24
23092 H 110.63850392878045 52.74102472198388 13.471421223702293 H 0.0 **** 0.06
23093 H 110.7438230768998 51.37887979747558 14.611832956025836 H 0.0 **** 0.06
23094 H 110.54783958407629 51.06817171417782 12.868907506074947 H 0.0 **** 0.06
23095 H 109.19878629663266 51.75050548310563 13.809163237309917 H 0.0 **** 0.06
23096 C 0.12341123271873045 51.762164138089545 45.20694189721071 C 0.0 **** -0.24
23097 H 0.0755143678925485 52.61026786797698 45.889048080917846 H 0.0 **** 0.06
23098 H 1.141992422269368 51.65222905334526 44.83442395424332 H 0.0 **** 0.06
23099 H -0.5538499115744369 51.931425960909436 44.36931979158558 H 0.0 **** 0.06
23100 H -0.1709930222335334 50.854571601569134 45.73508199117191 H 0.0 **** 0.06
23101 C 62.29810129062474 93.5595557967624 18.30571111054053 C 0.0 **** -0.24
23102 H 61.525435351022224 94.00599587041668 18.931445525370265 H 0.0 **** 0.06
23103 H 61.94355090790475 93.50361291243695 17.276026963767492 H 0.0 **** 0.06
23104 H 62.523481963320194 92.55676331441168 18.667423294538565 H 0.0 **** 0.06
23105 H 63.198538858711174 94.17205574323341 18.347888649545865 H 0.0 **** 0.06
23106 C 40.290312922530205 83.4891413788825 61.70518596871028 C 0.0 **** -0.24
23107 H 41.36010625615154 83.66838847344329 61.82075315500177 H 0.0 **** 0.06
23108 H 39.83999227580131 83.33954985037249 62.68682220179241 H 0.0 **** 0.06
23109 H 40.13619274717368 82.59933132118508 61.095347499680315 H 0.0 **** 0.06
23110 H 39.828619610483514 84.34750534827006 61.21845763126868 H 0.0 **** 0.06
23111 C 89.87907896756545 57.379499849461894 76.33892790119395 C 0.0 **** -0.24
23112 H 89.71800271084595 58.28728407368743 75.75756295447962 H 0.0 **** 0.06
23113 H 89.950289069143 57.633531506402164 77.39705269038024 H 0.0 **** 0.06
23114 H 90.8035480366338 56.900258497774644 76.01654049302036 H 0.0 **** 0.06
23115 H 89.04352358237642 56.696817450020006 76.18559531239609 H 0.0 **** 0.06
23116 C 6.215893568308676 33.955350200950534 8.616701666339551 C 0.0 **** -0.24
23117 H 5.77814656315188 34.105390024267166 9.60380277535478 H 0.0 **** 0.06
23118 H 7.2935729934881355 33.82936214142211 8.712037542239983 H 0.0 **** 0.06
23119 H 6.0049886326138395 34.82213111842293 7.989560556100173 H 0.0 **** 0.06
23120 H 5.7844745027362645 33.0638369875588 8.160057578190845 H 0.0 **** 0.06
23121 C 79.7540783324227 29.656867114537334 48.566485266753546 C 0.0 **** -0.24
23122 H 79.66057487240715 30.736013235473052 48.6891707684872 H 0.0 **** 0.06
23123 H 80.71849818915746 29.425868670171297 48.11312881108552 H 0.0 **** 0.06
23124 H 78.95270871986048 29.293615409089 47.92322956533553 H 0.0 **** 0.06
23125 H 79.68573573648013 29.173660818223482 49.5412457206653 H 0.0 **** 0.06
23126 C 61.44119931639471 107.3097770227223 102.34018479826204 C 0.0 **** -0.24
23127 H 61.29465192977187 107.88053180344016 101.42333377734695 H 0.0 **** 0.06
23128 H 61.42606827989142 106.24395313890156 102.11058402846629 H 0.0 **** 0.06
23129 H 60.64259037859403 107.54126788042964 103.04481356492488 H 0.0 **** 0.06
23130 H 62.40314706087053 107.57240594661809 102.78047737679924 H 0.0 **** 0.06
23131 C 60.885633260501216 81.36795175798261 105.15854658316474 C 0.0 **** -0.24
23132 H 60.322465027799176 81.85311097998738 104.3609557919064 H 0.0 **** 0.06
23133 H 61.38239450185157 80.48084322814049 104.7644898060874 H 0.0 **** 0.06
23134 H 60.204818445929014 81.07802423368582 105.95874541568264 H 0.0 **** 0.06
23135 H 61.63233940835142 82.05998215105132 105.54868740771263 H 0.0 **** 0.06
23136 C 71.20696568511673 78.58478359977377 94.42563129828679 C 0.0 **** -0.24
23137 H 70.83386067115302 79.24584552331427 93.64428843752296 H 0.0 **** 0.06
23138 H 71.55422237627226 79.18024437655853 95.26961185610108 H 0.0 **** 0.06
23139 H 72.03367435486118 77.99110770974417 94.03536000228564 H 0.0 **** 0.06
23140 H 70.40661778787086 77.92150289144988 94.75400596799312 H 0.0 **** 0.06
23141 C 45.41453476134862 94.20920337371868 96.32695090549092 C 0.0 **** -0.24
23142 H 45.97965636254435 93.96990035606456 97.22859700760625 H 0.0 **** 0.06
23143 H 44.76618534207381 93.37105956117023 96.07170212686694 H 0.0 **** 0.06
23144 H 46.10624177470973 94.39890047626213 95.50593543311328 H 0.0 **** 0.06
23145 H 44.80801000547174 95.09678991257138 96.50424378325604 H 0.0 **** 0.06
23146 C 73.1051321795889 76.95806439555656 48.024195202408634 C 0.0 **** -0.24
23147 H 72.08300521217762 76.79287871846287 47.683146622485054 H 0.0 **** 0.06
23148 H 73.50757993917253 77.85090620183485 47.545053980915185 H 0.0 **** 0.06
23149 H 73.71880512733006 76.09575947697317 47.76212317217062 H 0.0 **** 0.06
23150 H 73.11052897751796 77.09210560762367 49.10533474989063 H 0.0 **** 0.06
23151 C 18.18063815661759 73.55947589912489 4.648383179872148 C 0.0 **** -0.24
23152 H 17.09873034824949 73.46451007433504 4.74551712044693 H 0.0 **** 0.06
23153 H 18.490227301594757 73.19504579796828 3.668412119104749 H 0.0 **** 0.06
23154 H 18.668195701194975 72.97311758191552 5.426229849280874 H 0.0 **** 0.06
23155 H 18.46207611499574 74.6075734563189 4.7521626273779205 H 0.0 **** 0.06
23156 C 41.88520101031891 116.56592698380665 16.77503685517948 C 0.0 **** -0.24
23157 H 42.289134733941495 116.59111212817506 17.78672562884057 H 0.0 **** 0.06
23158 H 42.704869912163375 116.59603881319914 16.056045737163288 H 0.0 **** 0.06
23159 H 41.23477574945113 117.42707088852154 16.621944993385966 H 0.0 **** 0.06
23160 H 41.31296571503171 115.64947724214475 16.635095673634325 H 0.0 **** 0.06
23161 C 91.93867498438505 25.60456270136092 11.98622033977314 C 0.0 **** -0.24
23162 H 92.92892303254371 25.569656320334843 12.441180066924801 H 0.0 **** 0.06
23163 H 91.59940607318725 26.63979376615356 11.93307617370752 H 0.0 **** 0.06
23164 H 91.24099793414766 25.024095450694688 12.589248055032698 H 0.0 **** 0.06
23165 H 91.98695968662062 25.184714364066053 10.98068266281092 H 0.0 **** 0.06
23166 C 105.7133682141681 8.707269408350271 100.3664854224686 C 0.0 **** -0.24
23167 H 106.80208109997832 8.663302953938512 100.33414074058442 H 0.0 **** 0.06
23168 H 105.30761897138055 7.696988839497493 100.31636883310551 H 0.0 **** 0.06
23169 H 105.3475780279839 9.288950516735156 99.52025873772783 H 0.0 **** 0.06
23170 H 105.39755246917605 9.179942490863752 101.29694691275034 H 0.0 **** 0.06
23171 C 28.996890270477394 27.285535532704273 22.85727347163271 C 0.0 **** -0.24
23172 H 29.38793796997686 27.467349570435886 23.85853834223326 H 0.0 **** 0.06
23173 H 28.584886043902657 28.21080286528195 22.454310875161127 H 0.0 **** 0.06
23174 H 28.212799673415333 26.529337436591902 22.905194117993403 H 0.0 **** 0.06
23175 H 29.80101986834265 26.934799177389152 22.21142017045085 H 0.0 **** 0.06
23176 C 99.2735118992463 13.522546302723981 49.57447683566288 C 0.0 **** -0.24
23177 H 99.33687714572812 13.484015925221115 48.48773899803109 H 0.0 **** 0.06
23178 H 98.53517495663039 14.26861655203112 49.86886217202394 H 0.0 **** 0.06
23179 H 100.24709025298148 13.79207870622406 49.986147270083606 H 0.0 **** 0.06
23180 H 98.97588957769568 12.545905894519933 49.956077972394496 H 0.0 **** 0.06
23181 C 18.299885580875753 60.768070875304936 89.8543976330404 C 0.0 **** -0.24
23182 H 17.539900182693685 61.54051705775287 89.73998167742238 H 0.0 **** 0.06
23183 H 18.096202493222563 60.18719735325261 90.75400706051525 H 0.0 **** 0.06
23184 H 19.28155918258912 61.23512580602992 89.93753386687479 H 0.0 **** 0.06
23185 H 18.283030089993417 60.11017535272614 88.98569036395318 H 0.0 **** 0.06
23186 C 105.32483067927583 18.905769607497675 80.04997280384126 C 0.0 **** -0.24
23187 H 106.20945301772392 18.79294760688115 80.67498828657503 H 0.0 **** 0.06
23188 H 105.08581547567223 19.964675757191806 79.9454379504104 H 0.0 **** 0.06
23189 H 104.48475778719686 18.387656567737107 80.51263292315517 H 0.0 **** 0.06
23190 H 105.51843989995248 18.477517419313607 79.06574235072523 H 0.0 **** 0.06
23191 C 111.80357368187116 38.59989210089489 100.36615283706061 C 0.0 **** -0.24
23192 H 111.42630682674901 37.73307754616383 99.82272366424922 H 0.0 **** 0.06
23193 H 111.12301012007241 39.4401240556314 100.22674876909187 H 0.0 **** 0.06
23194 H 112.7909294170584 38.86363076159759 99.98747946845126 H 0.0 **** 0.06
23195 H 111.87358079524944 38.36055049941699 101.42773073197654 H 0.0 **** 0.06
23196 C 46.94057105383216 30.293711060348215 15.89611806265286 C 0.0 **** -0.24
23197 H 47.973798717332976 30.02635964723632 16.115402639494906 H 0.0 **** 0.06
23198 H 46.36131429356755 30.29173247594943 16.819795328871205 H 0.0 **** 0.06
23199 H 46.51720358508149 29.569398035909302 15.199711832240453 H 0.0 **** 0.06
23200 H 46.90996761934682 31.287354082297867 15.449562450004926 H 0.0 **** 0.06
23201 C 99.1757458294106 86.91859152521604 107.64338008196262 C 0.0 **** -0.24
23202 H 100.08414289861744 87.51104120624643 107.75164870094196 H 0.0 **** 0.06
23203 H 98.30600446979017 87.5508801599025 107.82399862800955 H 0.0 **** 0.06
23204 H 99.18677266851122 86.10137818204595 108.36414334995325 H 0.0 **** 0.06
23205 H 99.12606328072357 86.5110665526692 106.63372964894606 H 0.0 **** 0.06
23206 C 59.8735569768468 115.97811264939088 36.266359115223594 C 0.0 **** -0.24
23207 H 58.94443814253441 115.54678246845646 36.639194795239604 H 0.0 **** 0.06
23208 H 60.1204105006818 116.86754372102729 36.84615793980814 H 0.0 **** 0.06
23209 H 59.75264719165648 116.24955409704424 35.217554872049504 H 0.0 **** 0.06
23210 H 60.67735013911238 115.24796822066314 36.3620233452275 H 0.0 **** 0.06
23211 C 109.33085968887156 71.19919421641018 68.77494831741603 C 0.0 **** -0.24
23212 H 110.02088328256377 70.72473977905182 69.47355726486848 H 0.0 **** 0.06
23213 H 109.5056077341244 70.80848003551776 67.77214945657965 H 0.0 **** 0.06
23214 H 109.49418246668705 72.27651753269322 68.77882929670727 H 0.0 **** 0.06
23215 H 108.30535330569575 70.98522222406962 69.07526745255097 H 0.0 **** 0.06
23216 C 19.77775490493309 77.98461267639487 15.138612895519401 C 0.0 **** -0.24
23217 H 19.97498665878345 77.5365575299405 14.165234690918027 H 0.0 **** 0.06
23218 H 19.134655671047824 77.32348096254537 15.720031190194419 H 0.0 **** 0.06
23219 H 19.281896001693212 78.9464397798458 15.001166034708092 H 0.0 **** 0.06
23220 H 20.718900528866925 78.13358472204459 15.668271494716294 H 0.0 **** 0.06
23221 C 79.3696946429483 67.65844542633042 68.04801928532015 C 0.0 **** -0.24
23222 H 78.65015932758087 68.4464488357076 68.27298726307984 H 0.0 **** 0.06
23223 H 79.83325309879959 67.31582547590216 68.97305500621383 H 0.0 **** 0.06
23224 H 80.13691590546338 68.04887641389072 67.379750539089 H 0.0 **** 0.06
23225 H 78.85758888495832 66.82537541172033 67.5671367902759 H 0.0 **** 0.06
23226 C 93.87478982340565 90.55387095383867 61.138861137011304 C 0.0 **** -0.24
23227 H 93.5746621456172 91.27622872607537 60.380053805832546 H 0.0 **** 0.06
23228 H 93.65906856403862 90.95719971979838 62.12880218242003 H 0.0 **** 0.06
23229 H 94.94304079760317 90.35838516522341 61.051145301178536 H 0.0 **** 0.06
23230 H 93.32209609585362 89.62608313378462 60.995748276715204 H 0.0 **** 0.06
23231 C 82.58745244133763 78.68667847964 106.20613085598379 C 0.0 **** -0.24
23232 H 83.2989791720251 79.30207771509544 105.65632324440031 H 0.0 **** 0.06
23233 H 82.48722790338502 77.71923444828656 105.7130060085646 H 0.0 **** 0.06
23234 H 81.61777686300957 79.1850148967348 106.22996603790989 H 0.0 **** 0.06
23235 H 82.94582582693062 78.54038685844333 107.22522813306048 H 0.0 **** 0.06
23236 C 68.68800278213897 65.08328208705458 47.886072742091244 C 0.0 **** -0.24
23237 H 67.96243591530597 64.93230817545924 47.086191738410626 H 0.0 **** 0.06
23238 H 68.18483148913401 65.50184462777389 48.75789785938262 H 0.0 **** 0.06
23239 H 69.46305859095912 65.77068731774642 47.54719591238746 H 0.0 **** 0.06
23240 H 69.13978741811314 64.12779888102182 48.150965928264654 H 0.0 **** 0.06
23241 C 39.78499183706458 61.65044312992608 13.618809386753298 C 0.0 **** -0.24
23242 H 40.07225357889365 62.701567027209926 13.612393000509172 H 0.0 **** 0.06
23243 H 38.805239599491586 61.538915357987655 13.151743852078482 H 0.0 **** 0.06
23244 H 39.74094532778105 61.29184512268356 14.646987053835716 H 0.0 **** 0.06
23245 H 40.520839888495715 61.069486701913 13.061763331423492 H 0.0 **** 0.06
23246 C 62.232870217414614 79.6159875531277 26.64564169607425 C 0.0 **** -0.24
23247 H 61.59712574312482 80.05094008236932 25.873568963573433 H 0.0 **** 0.06
23248 H 63.232574225169515 79.45345556859519 26.243015062183815 H 0.0 **** 0.06
23249 H 61.8111785082167 78.66427064191424 26.96844344705802 H 0.0 **** 0.06
23250 H 62.28882843362982 80.29598345988444 27.496001761689072 H 0.0 **** 0.06
23251 C 31.643049437014184 9.318034420342343 101.39060575208046 C 0.0 **** -0.24
23252 H 31.530399302243353 9.90788993920259 100.48057310510993 H 0.0 **** 0.06
23253 H 31.376877112395192 8.281002150505728 101.18676926232641 H 0.0 **** 0.06
23254 H 30.988431897370248 9.717189430651473 102.16503786033303 H 0.0 **** 0.06
23255 H 32.67888383132015 9.367470125669456 101.7289166821243 H 0.0 **** 0.06
23256 C 31.515455440154852 14.411496653223764 116.67090320214976 C 0.0 **** -0.24
23257 H 32.4344661260661 14.794481334628358 116.22632125784799 H 0.0 **** 0.06
23258 H 31.177658636327948 13.538918345170032 116.11055646900847 H 0.0 **** 0.06
23259 H 30.74739694278651 15.184069004133448 116.63851405666719 H 0.0 **** 0.06
23260 H 31.703435439078845 14.128382984094344 117.70629931122535 H 0.0 **** 0.06
23261 C 62.04229702159797 64.27698938922913 78.86473153228371 C 0.0 **** -0.24
23262 H 61.78650106137078 63.426586642098975 79.49788762755463 H 0.0 **** 0.06
23263 H 61.77621531789094 65.20272459495865 79.37463917393788 H 0.0 **** 0.06
23264 H 61.49355266227895 64.20797643800103 77.9260730534933 H 0.0 **** 0.06
23265 H 63.11311327481538 64.2686254656148 78.66121110588242 H 0.0 **** 0.06
23266 C 109.58305391798777 88.81631455765151 22.22973307231848 C 0.0 **** -0.24
23267 H 108.6342582309799 89.34851429824664 22.15517304063792 H 0.0 **** 0.06
23268 H 110.37864119191968 89.43053602955663 21.806205121188157 H 0.0 **** 0.06
23269 H 109.51602965634856 87.87650040672338 21.680865941468966 H 0.0 **** 0.06
23270 H 109.80149707855273 88.6105256877847 23.277750490873018 H 0.0 **** 0.06
23271 C 113.87366170268291 95.90902195677856 38.50366173441194 C 0.0 **** -0.24
23272 H 113.91626217738951 95.0139465924367 37.883291489000726 H 0.0 **** 0.06
23273 H 113.10571246400286 96.58136410150306 38.11929465041159 H 0.0 **** 0.06
23274 H 114.84081575257748 96.41234449360749 38.48197081108519 H 0.0 **** 0.06
23275 H 113.63319253935165 95.62956286853088 39.52912169426396 H 0.0 **** 0.06
23276 C 97.84173801125556 104.28892624625831 13.77969137829703 C 0.0 **** -0.24
23277 H 97.64228267832948 103.2192870027637 13.848527821715606 H 0.0 **** 0.06
23278 H 98.41509678928503 104.60814354648906 14.650187219532512 H 0.0 **** 0.06
23279 H 96.89702771884217 104.83218540172285 13.745942954631317 H 0.0 **** 0.06
23280 H 98.4113309810686 104.49402813331608 12.873578803911101 H 0.0 **** 0.06
23281 C 16.96053543511289 110.92228792900195 99.36649599635345 C 0.0 **** -0.24
23282 H 17.676461175418563 110.22657090593358 99.80364940036509 H 0.0 **** 0.06
23283 H 15.987756049853619 110.43640447473817 99.28348051727 H 0.0 **** 0.06
23284 H 17.303338629554556 111.22189151039746 98.37632802760896 H 0.0 **** 0.06
23285 H 16.873791736578895 111.80321484967743 100.00299995612534 H 0.0 **** 0.06
23286 C 20.95023992594787 32.41200488932958 27.731202830787808 C 0.0 **** -0.24
23287 H 21.340230442913537 31.853015118879 26.880612567285567 H 0.0 **** 0.06
23288 H 20.642785024538682 33.40504401427262 27.403131564354112 H 0.0 **** 0.06
23289 H 21.72528008686851 32.50347981151418 28.491819043612765 H 0.0 **** 0.06
23290 H 20.091093825915607 31.885300466059448 28.147784697779798 H 0.0 **** 0.06
23291 C 86.79912130080729 4.094673959608713 50.82070040281681 C 0.0 **** -0.24
23292 H 87.16834244364375 4.912649826120202 50.202554659046875 H 0.0 **** 0.06
23293 H 86.20819012739082 3.41453034475326 50.20620707341776 H 0.0 **** 0.06
23294 H 86.17754494091304 4.495522384214496 51.62039237108632 H 0.0 **** 0.06
23295 H 87.64290873014514 3.5559859371658575 51.251468242624156 H 0.0 **** 0.06
23296 C 4.46610737888669 92.41013747660864 81.557739939529 C 0.0 **** -0.24
23297 H 3.602690191461747 91.9491501767092 82.03766644239786 H 0.0 **** 0.06
23298 H 4.238691658835975 92.6011844754328 80.50919329082492 H 0.0 **** 0.06
23299 H 5.321883743680232 91.7386975704112 81.6277772893936 H 0.0 **** 0.06
23300 H 4.6993700398494695 93.34996110687518 82.05692223921099 H 0.0 **** 0.06
23301 C 13.33522543424872 104.68957167362274 54.83773445343709 C 0.0 **** -0.24
23302 H 12.758683056106428 104.99070130262291 53.96274083497127 H 0.0 **** 0.06
23303 H 13.500105562388626 103.6124033110165 54.809934529295646 H 0.0 **** 0.06
23304 H 12.78577082220205 104.9510896174437 55.74184005358154 H 0.0 **** 0.06
23305 H 14.29492731423294 105.20544987231403 54.833747343495475 H 0.0 **** 0.06
23306 C 81.855363245354 115.83440456327446 55.06692377305516 C 0.0 **** -0.24
23307 H 82.79420454017242 115.9613185906299 54.52736112578816 H 0.0 **** 0.06
23308 H 82.05852163773844 115.42503821593404 56.05685350182599 H 0.0 **** 0.06
23309 H 81.2093557670878 115.15169738771593 54.51549818433607 H 0.0 **** 0.06
23310 H 81.36094556910376 116.80090650154713 55.16713435068109 H 0.0 **** 0.06
23311 C 101.27289809700659 9.661807136664748 44.374723760540796 C 0.0 **** -0.24
23312 H 100.63155941275875 9.52265538465332 45.244408407419186 H 0.0 **** 0.06
23313 H 101.42419685371291 10.727726867637784 44.202140961145425 H 0.0 **** 0.06
23314 H 100.8007991593756 9.215257462773423 43.500203956811 H 0.0 **** 0.06
23315 H 102.23595070866031 9.181788515294897 44.552495626150964 H 0.0 **** 0.06
23316 C 41.077087569895326 41.75364846997282 39.20877457477093 C 0.0 **** -0.24
23317 H 40.72250695484132 40.86837088878685 38.68054339583358 H 0.0 **** 0.06
23318 H 40.82992510350394 42.645198002845135 38.630615225005016 H 0.0 **** 0.06
23319 H 42.158286265105914 41.691931741542746 39.336526096277254 H 0.0 **** 0.06
23320 H 40.59883254278165 41.81021458169907 40.18589651578645 H 0.0 **** 0.06
23321 C 18.49981436487883 96.43465474935914 35.061262007432276 C 0.0 **** -0.24
23322 H 17.41645329796401 96.52142272694431 34.97578039821079 H 0.0 **** 0.06
23323 H 18.74821646753088 95.85108140211184 35.94771364540918 H 0.0 **** 0.06
23324 H 18.937569526460578 97.42969807018065 35.145536656394796 H 0.0 **** 0.06
23325 H 18.894237117662755 95.93791106517162 34.175834277296104 H 0.0 **** 0.06
23326 C 9.292355536316592 69.13121234802432 27.799294266063896 C 0.0 **** -0.24
23327 H 8.971821134309494 68.09821432397155 27.931875200660272 H 0.0 **** 0.06
23328 H 10.234588946781685 69.28846757920539 28.323288445157573 H 0.0 **** 0.06
23329 H 8.534430315421417 69.80075401751725 28.20441425499763 H 0.0 **** 0.06
23330 H 9.427445245816642 69.33555700453704 26.73708712623602 H 0.0 **** 0.06
23331 C 34.232532932887565 60.53027518637972 58.52738472549111 C 0.0 **** -0.24
23332 H 35.19548081336106 60.25503218314895 58.0965788944745 H 0.0 **** 0.06
23333 H 33.43133898076766 60.20806919335906 57.86268142109645 H 0.0 **** 0.06
23334 H 34.187973676719395 61.61132767518938 58.654352743867015 H 0.0 **** 0.06
23335 H 34.117876265058214 60.044126780626236 59.496966401709805 H 0.0 **** 0.06
23336 C 40.8287475941774 74.82433113065605 38.14045996953493 C 0.0 **** -0.24
23337 H 39.91033825569326 74.28858091661232 37.90348132735576 H 0.0 **** 0.06
23338 H 41.67298147366091 74.32890756289154 37.6617966603319 H 0.0 **** 0.06
23339 H 40.97518968044062 74.83135240310327 39.22120067072723 H 0.0 **** 0.06
23340 H 40.75456156126256 75.85018430363655 37.777895855762665 H 0.0 **** 0.06
23341 C 65.74652747001872 17.75295593377527 91.05752230008949 C 0.0 **** -0.24
23342 H 66.76514706767333 17.452806347513814 91.3024453102442 H 0.0 **** 0.06
23343 H 65.77217517008117 18.65326770259162 90.44263129366442 H 0.0 **** 0.06
23344 H 65.19723274319864 17.956247514845245 91.97678385206228 H 0.0 **** 0.06
23345 H 65.25395051829051 16.950767323394643 90.50951751066418 H 0.0 **** 0.06
23346 C 68.94208398489616 114.68145308428336 106.42711057611871 C 0.0 **** -0.24
23347 H 68.32091308924774 113.91651874331876 106.89352258476137 H 0.0 **** 0.06
23348 H 68.53802374341612 115.66743458725807 106.65697743244507 H 0.0 **** 0.06
23349 H 68.95052564131481 114.53356465840864 105.34787768421111 H 0.0 **** 0.06
23350 H 69.95995210889095 114.60667193344159 106.81234601087556 H 0.0 **** 0.06
23351 C 55.43407279750481 51.7059725278575 66.56095989893808 C 0.0 **** -0.24
23352 H 55.138300529808724 50.75877109698034 67.0132288953262 H 0.0 **** 0.06
23353 H 55.66980515678667 51.54829359053912 65.50937420764998 H 0.0 **** 0.06
23354 H 56.31305789224262 52.094913773707376 67.07652072765634 H 0.0 **** 0.06
23355 H 54.615914007210314 52.42128602167832 66.64832006573593 H 0.0 **** 0.06
23356 C 68.94371860611636 19.6379882537762 67.98445624361702 C 0.0 **** -0.24
23357 H 68.64982965392892 20.48575765094654 67.36660980338036 H 0.0 **** 0.06
23358 H 68.288287282814 19.577060023117696 68.85382587425232 H 0.0 **** 0.06
23359 H 69.97481351331902 19.769705573962256 68.31463935625413 H 0.0 **** 0.06
23360 H 68.86290892634781 18.71950999578206 67.40299991888085 H 0.0 **** 0.06
23361 C 36.056129599607516 112.86737698607755 63.83535747399754 C 0.0 **** -0.24
23362 H 36.51802440836417 113.81629940201505 64.10996166847386 H 0.0 **** 0.06
23363 H 35.33289860776051 113.03386252178709 63.036417851034436 H 0.0 **** 0.06
23364 H 35.54928953307319 112.44538520050239 64.70320022810861 H 0.0 **** 0.06
23365 H 36.82500328858151 112.17627154509667 63.49143244488119 H 0.0 **** 0.06
23366 C 90.67983670050486 97.06401960962407 93.50906914375739 C 0.0 **** -0.24
23367 H 90.6522565844165 98.06895972167976 93.08599732505965 H 0.0 **** 0.06
23368 H 90.90976513248444 96.34547064734184 92.72223543772014 H 0.0 **** 0.06
23369 H 89.71021499204099 96.82718950940739 93.94671876772406 H 0.0 **** 0.06
23370 H 91.4477944944814 97.01681056607748 94.28132176642555 H 0.0 **** 0.06
23371 C 112.1796362679768 93.8305343672186 60.1933744489705 C 0.0 **** -0.24
23372 H 111.9583381121445 94.60609643465168 59.460095119614095 H 0.0 **** 0.06
23373 H 112.3546166521138 94.29040081993816 61.166178486725045 H 0.0 **** 0.06
23374 H 113.06958013263079 93.28241471075671 59.88467928622916 H 0.0 **** 0.06
23375 H 111.33584483137375 93.14450696530801 60.26196989610912 H 0.0 **** 0.06
23376 C 82.33152792202895 53.95260075851596 107.74136863311247 C 0.0 **** -0.24
23377 H 82.21101107525945 54.037660196464735 106.66127208078598 H 0.0 **** 0.06
23378 H 81.36857676904216 54.10542695862777 108.22778732557728 H 0.0 **** 0.06
23379 H 83.03739709419798 54.70771497748941 108.08752784991029 H 0.0 **** 0.06
23380 H 82.71161252529589 52.96095504988499 107.98789343321988 H 0.0 **** 0.06
23381 C 58.93539859234013 27.621224353423223 78.08928991029777 C 0.0 **** -0.24
23382 H 59.97623596828422 27.311906059101773 77.99821483579191 H 0.0 **** 0.06
23383 H 58.55120566868889 27.896020641095163 77.1059700868658 H 0.0 **** 0.06
23384 H 58.86960370871375 28.479877221031686 78.75759692055371 H 0.0 **** 0.06
23385 H 58.345850840029776 26.799073613190302 78.49353798316992 H 0.0 **** 0.06
23386 C 85.02791465996154 69.84844985246875 27.58944356308581 C 0.0 **** -0.24
23387 H 84.28237743154432 69.56294149417278 28.331851272716136 H 0.0 **** 0.06
23388 H 84.80530717946476 69.35493825127267 26.64358619849162 H 0.0 **** 0.06
23389 H 86.01738721678555 69.54789235259068 27.933507793414094 H 0.0 **** 0.06
23390 H 85.0040300380141 70.93001118626617 27.449555477452463 H 0.0 **** 0.06
23391 C 26.36253525361468 9.554216726001819 107.27141667695503 C 0.0 **** -0.24
23392 H 25.542285362218024 10.025524878892746 106.73203965083798 H 0.0 **** 0.06
23393 H 26.454488618823348 8.514384500768589 106.95665879136808 H 0.0 **** 0.06
23394 H 26.163389114028917 9.593021887065284 108.34261132315753 H 0.0 **** 0.06
23395 H 27.291427242569796 10.083393504105558 107.05513522780626 H 0.0 **** 0.06
23396 C 17.23834802542509 15.581521949435796 105.23762881938549 C 0.0 **** -0.24
23397 H 17.108762656059643 16.604458077433947 105.5901188715859 H 0.0 **** 0.06
23398 H 16.957388148828024 15.522256648814988 104.18587829393678 H 0.0 **** 0.06
23399 H 16.60637680854137 14.913166115225167 105.82113780493847 H 0.0 **** 0.06
23400 H 18.281689404362663 15.28779370285379 105.35203790663081 H 0.0 **** 0.06
23401 C 4.918864108413894 73.22663051403094 47.63819711009694 C 0.0 **** -0.24
23402 H 5.47388149588703 72.33098473907259 47.357025669150175 H 0.0 **** 0.06
23403 H 3.897307091146361 73.15229652884395 47.26356427271298 H 0.0 **** 0.06
23404 H 5.4017983133420255 74.10357098683446 47.207804393532 H 0.0 **** 0.06
23405 H 4.903065141246387 73.3165722927956 48.72462053879144 H 0.0 **** 0.06
23406 C 77.21686749122185 67.31665117817082 95.71532266368101 C 0.0 **** -0.24
23407 H 77.12246182367647 66.25191133791935 95.50168836215897 H 0.0 **** 0.06
23408 H 76.41055571667499 67.85905115514313 95.22170586272645 H 0.0 **** 0.06
23409 H 78.17742758897685 67.6763085922689 95.34726862827438 H 0.0 **** 0.06
23410 H 77.15763784492813 67.47745875949244 96.79208019211771 H 0.0 **** 0.06
23411 C 13.171581160116176 98.73639985933934 89.51868841089356 C 0.0 **** -0.24
23412 H 12.836441147757355 99.10062420391202 88.54779977916715 H 0.0 **** 0.06
23413 H 13.302265841822916 99.57971331839147 90.19688520761969 H 0.0 **** 0.06
23414 H 14.120046706201094 98.2121186657441 89.40337890141271 H 0.0 **** 0.06
23415 H 12.426578889626683 98.05326875813412 89.92670125968968 H 0.0 **** 0.06
23416 C 61.85339575723652 96.17101765109624 98.1550506282972 C 0.0 **** -0.24
23417 H 60.87008473662036 96.5906007103329 97.94380331388061 H 0.0 **** 0.06
23418 H 61.951539276739545 95.993599308462 99.22591734865262 H 0.0 **** 0.06
23419 H 62.623836464379885 96.87019362926574 97.83019215869527 H 0.0 **** 0.06
23420 H 61.969320620710526 95.22875085452355 97.61864431809195 H 0.0 **** 0.06
23421 C 64.61989434732612 56.00608845250326 64.42531665379329 C 0.0 **** -0.24
23422 H 65.50260478228756 56.39985756021832 64.92964409771957 H 0.0 **** 0.06
23423 H 63.97013441612674 56.83116710593703 64.13305097364167 H 0.0 **** 0.06
23424 H 64.08230255814573 55.34138629888088 65.10272803127836 H 0.0 **** 0.06
23425 H 64.92573570209348 55.451378206880634 63.53853452346394 H 0.0 **** 0.06
23426 C 44.74586396844245 39.75472144172846 101.6809536089684 C 0.0 **** -0.24
23427 H 44.379486736997606 39.872904330870256 100.66028000643536 H 0.0 **** 0.06
23428 H 44.77852250550809 38.69461224953804 101.93339749630508 H 0.0 **** 0.06
23429 H 44.07737959067816 40.27209207030517 102.3691107383602 H 0.0 **** 0.06
23430 H 45.74668994709775 40.178399950532594 101.75765944461662 H 0.0 **** 0.06
23431 C 106.01920766668388 57.71466416226868 21.747904700750325 C 0.0 **** -0.24
23432 H 106.08200899862427 56.67299369826919 22.062640464694994 H 0.0 **** 0.06
23433 H 105.703355015373 57.76064146486561 20.704804867609454 H 0.0 **** 0.06
23434 H 106.99628581475136 58.18534326332571 21.85310638509975 H 0.0 **** 0.06
23435 H 105.29440013928968 58.23868203987225 22.370436018573827 H 0.0 **** 0.06
23436 C 93.05310821147648 103.83947409169372 98.13693693517942 C 0.0 **** -0.24
23437 H 93.55406923421873 102.903148779552 97.89398252166075 H 0.0 **** 0.06
23438 H 92.13619192329492 103.92240972183947 97.5522094351582 H 0.0 **** 0.06
23439 H 93.71181078393673 104.67592450504492 97.8997878479426 H 0.0 **** 0.06
23440 H 92.81070223801828 103.85762340032068 99.19886623384528 H 0.0 **** 0.06
23441 C 102.37885702030232 33.95134356492787 11.52921929764264 C 0.0 **** -0.24
23442 H 102.6645898450615 33.47322993501382 12.466354344291346 H 0.0 **** 0.06
23443 H 101.94404300693546 33.20797067011415 10.8607467831268 H 0.0 **** 0.06
23444 H 103.26013310140652 34.38918473914532 11.062484437663187 H 0.0 **** 0.06
23445 H 101.64596887260396 34.73303046323656 11.729877065635264 H 0.0 **** 0.06
23446 C 50.66979369658148 57.52131861261779 65.8937397392666 C 0.0 **** -0.24
23447 H 50.487304253716985 56.45517382395178 66.03169230394752 H 0.0 **** 0.06
23448 H 51.60286131077049 57.66340885788935 65.34896352388745 H 0.0 **** 0.06
23449 H 50.738873845188465 58.00611286152582 66.86718536868881 H 0.0 **** 0.06
23450 H 49.84735464435607 57.9587782183325 65.32695749076169 H 0.0 **** 0.06
23451 C 94.66628738029434 63.69189289954494 21.616848514700962 C 0.0 **** -0.24
23452 H 93.641697415631 63.92881654332561 21.329966024182568 H 0.0 **** 0.06
23453 H 94.66708262229608 62.83041764596996 22.28441926170825 H 0.0 **** 0.06
23454 H 95.1074559593595 64.54808467259167 22.12743436908076 H 0.0 **** 0.06
23455 H 95.24940473694701 63.461493564573686 20.72510624679657 H 0.0 **** 0.06
23456 C 15.822654484513755 85.864258310623 15.668148879102432 C 0.0 **** -0.24
23457 H 16.323715711442503 84.90549946101194 15.53328190104628 H 0.0 **** 0.06
23458 H 15.960901715650603 86.47458792346978 14.775709284649508 H 0.0 **** 0.06
23459 H 16.24983723784234 86.37865479199195 16.52950488791862 H 0.0 **** 0.06
23460 H 14.75927792736034 85.69822024259253 15.835237226408367 H 0.0 **** 0.06
23461 C 45.21882930401435 64.00190740263719 33.64586015610428 C 0.0 **** -0.24
23462 H 44.59798005127493 63.280689528002405 34.1793777965043 H 0.0 **** 0.06
23463 H 44.70108703931166 64.96024733924898 33.59797992042155 H 0.0 **** 0.06
23464 H 45.40795547518144 63.63952248550083 32.63593373948612 H 0.0 **** 0.06
23465 H 46.164803196608204 64.12541884231459 34.17146950199748 H 0.0 **** 0.06
23466 C 85.55570477743703 11.833846156362029 92.70886247088708 C 0.0 **** -0.24
23467 H 84.91008756974333 12.701842439342016 92.843513332991 H 0.0 **** 0.06
23468 H 84.97099824009402 10.92323874823289 92.83955823433536 H 0.0 **** 0.06
23469 H 86.3577406845572 11.860304707641887 93.44672853716366 H 0.0 **** 0.06
23470 H 85.98296835071929 11.851569075835727 91.7063462909693 H 0.0 **** 0.06
23471 C 46.19986219809243 11.71364900712064 47.69219025572278 C 0.0 **** -0.24
23472 H 46.51936766288951 11.92591472491204 46.67184056219341 H 0.0 **** 0.06
23473 H 45.649121672203265 12.568235125670007 48.08583150415686 H 0.0 **** 0.06
23474 H 47.0744276422986 11.527067850092603 48.3154997503668 H 0.0 **** 0.06
23475 H 45.55653181497823 10.833378327808013 47.695589206173906 H 0.0 **** 0.06
23476 C 50.80568978756991 78.04662960897957 24.605344730764728 C 0.0 **** -0.24
23477 H 50.71575621955265 77.84026154878774 25.67177200587264 H 0.0 **** 0.06
23478 H 51.21056429027614 79.04892059988532 24.46256021457708 H 0.0 **** 0.06
23479 H 49.82326110574823 77.98066616279328 24.1386846543125 H 0.0 **** 0.06
23480 H 51.47449798637112 77.31680302128194 24.14885078332054 H 0.0 **** 0.06
23481 C 13.527638645412623 85.25453909048952 114.25461293691939 C 0.0 **** -0.24
23482 H 13.929971662583796 84.87617189507222 113.31432817371675 H 0.0 **** 0.06
23483 H 13.32407569111544 86.32184915860898 114.15906503697738 H 0.0 **** 0.06
23484 H 14.252740848643185 85.09298023580556 115.05165461796608 H 0.0 **** 0.06
23485 H 12.602783795362654 84.72837849107972 114.49084690940666 H 0.0 **** 0.06
23486 C 50.1678649764047 44.62105604504598 110.92758073053974 C 0.0 **** -0.24
23487 H 50.51417773122108 44.142471317996126 111.84331380719571 H 0.0 **** 0.06
23488 H 49.091379190179566 44.476860636650564 110.82721094641356 H 0.0 **** 0.06
23489 H 50.675131906421825 44.17733812688204 110.07078341030743 H 0.0 **** 0.06
23490 H 50.389542486393395 45.68704959460152 110.968528800504 H 0.0 **** 0.06
23491 C 44.99764493903831 86.52440993313462 0.8730579305380388 C 0.0 **** -0.24
23492 H 45.23568519368598 86.56088598213591 -0.19005133273711294 H 0.0 **** 0.06
23493 H 44.43612985797205 87.41665933408785 1.1501098917203052 H 0.0 **** 0.06
23494 H 45.92145628572217 86.48152035110553 1.4504339565278883 H 0.0 **** 0.06
23495 H 44.39837138484984 85.63789314079503 1.0811015851533767 H 0.0 **** 0.06
23496 C 44.58499172714647 43.86874218176695 92.85637609856042 C 0.0 **** -0.24
23497 H 43.683214580243174 43.647009219626085 93.42680261956707 H 0.0 **** 0.06
23498 H 45.4348367650432 43.94310370555368 93.53535973623985 H 0.0 **** 0.06
23499 H 44.45745063633234 44.814240174050326 92.32934500291569 H 0.0 **** 0.06
23500 H 44.763879976876694 43.07128498249284 92.13548363293867 H 0.0 **** 0.06
23501 C 85.9801329626325 16.285486379586203 19.70928474678948 C 0.0 **** -0.24
23502 H 85.86122198097075 15.65034828396169 20.586979301147892 H 0.0 **** 0.06
23503 H 85.05043624646723 16.822964327068348 19.520869054807292 H 0.0 **** 0.06
23504 H 86.22578150487422 15.668770201068071 18.844983357978293 H 0.0 **** 0.06
23505 H 86.78375730437108 17.000593164810624 19.88446224327933 H 0.0 **** 0.06
23506 C 52.50345502222592 47.47253897230212 65.12422630897458 C 0.0 **** -0.24
23507 H 53.48033276952276 46.99810527855266 65.21511896786816 H 0.0 **** 0.06
23508 H 52.56889216948821 48.50687216003371 65.46346643947021 H 0.0 **** 0.06
23509 H 51.779348894422924 46.933797561344136 65.73662002210881 H 0.0 **** 0.06
23510 H 52.184389966658074 47.45109086058369 64.08212725338055 H 0.0 **** 0.06
23511 C 94.86354491633415 42.82115690023517 97.80865745983627 C 0.0 **** -0.24
23512 H 95.5821210446602 43.59352732706782 97.53406276055244 H 0.0 **** 0.06
23513 H 94.44756816379768 43.04396109409697 98.79153671704356 H 0.0 **** 0.06
23514 H 95.36335825293 41.85305677808611 97.83670618201336 H 0.0 **** 0.06
23515 H 94.06051913638419 42.79479742332654 97.07198809898625 H 0.0 **** 0.06
23516 C 39.3843989006623 8.315111640572269 60.49910755007817 C 0.0 **** -0.24
23517 H 39.8776605665982 7.887235689506483 61.372523905994775 H 0.0 **** 0.06
23518 H 38.75107022447026 7.559876143610197 60.03338540802431 H 0.0 **** 0.06
23519 H 40.13702632676699 8.650216120958447 59.78478832047242 H 0.0 **** 0.06
23520 H 38.77301174572081 9.163440093406862 60.80696556227904 H 0.0 **** 0.06
23521 C 46.60113499268354 84.68506488379506 101.46306769588423 C 0.0 **** -0.24
23522 H 46.16561564823454 84.92902743420063 102.43157380708735 H 0.0 **** 0.06
23523 H 45.82701491137241 84.28787046622676 100.80622549200407 H 0.0 **** 0.06
23524 H 47.38434665678587 83.93916260193555 101.5952765914997 H 0.0 **** 0.06
23525 H 47.02755386030916 85.5854330088016 101.01988579110483 H 0.0 **** 0.06
23526 C 57.50786848530799 73.69811304825413 50.5788161642285 C 0.0 **** -0.24
23527 H 58.42114288266732 73.13891682617577 50.37316237400796 H 0.0 **** 0.06
23528 H 57.74019029860562 74.54868092087861 51.22013267781236 H 0.0 **** 0.06
23529 H 56.789940662863124 73.04928918914123 51.080877144108456 H 0.0 **** 0.06
23530 H 57.08179270265567 74.05495140581485 49.64138736541514 H 0.0 **** 0.06
23531 C 43.38050152669416 81.77681817407785 90.73704302137136 C 0.0 **** -0.24
23532 H 43.59487568989033 81.83243893804362 91.80426746315518 H 0.0 **** 0.06
23533 H 42.310090505665755 81.90118729997738 90.57535353328541 H 0.0 **** 0.06
23534 H 43.696952236802815 80.80696594277609 90.3537160864019 H 0.0 **** 0.06
23535 H 43.92157586984342 82.56694574156248 90.2176126833337 H 0.0 **** 0.06
23536 C 84.09327741642238 59.06513737231473 38.203918366628756 C 0.0 **** -0.24
23537 H 84.08759727378606 58.01862615356918 37.896046509163796 H 0.0 **** 0.06
23538 H 83.36456127357008 59.211688388114915 39.00093124406476 H 0.0 **** 0.06
23539 H 83.83456202174432 59.69395998679651 37.3527542487312 H 0.0 **** 0.06
23540 H 85.08659970941585 59.33183904118717 38.56481032412833 H 0.0 **** 0.06
23541 C 36.52221995132254 101.10984841402316 1.0365893681227565 C 0.0 **** -0.24
23542 H 35.754495482564664 100.33816564553464 1.0940594969397406 H 0.0 **** 0.06
23543 H 36.0538464533135 102.09343128207283 1.0956664433954675 H 0.0 **** 0.06
23544 H 37.05859413799169 101.01930095644016 0.0917624614325181 H 0.0 **** 0.06
23545 H 37.22140281711546 100.98969039829669 1.864339546470985 H 0.0 **** 0.06
23546 C 95.90418167286967 65.75171517763937 69.28289204495991 C 0.0 **** -0.24
23547 H 96.32686667165837 66.41656465292675 68.53039788251726 H 0.0 **** 0.06
23548 H 94.82186936480193 65.70217206532391 69.15722740115905 H 0.0 **** 0.06
23549 H 96.13744318043322 66.13448314543416 70.27705942834467 H 0.0 **** 0.06
23550 H 96.32995677737304 64.7548368870684 69.16735323452008 H 0.0 **** 0.06
23551 C 75.17631328161849 19.804134119385083 18.037885088596 C 0.0 **** -0.24
23552 H 74.57183902225222 20.579386129178374 17.567019760388362 H 0.0 **** 0.06
23553 H 76.16228877969712 20.204650256194043 18.272092404135364 H 0.0 **** 0.06
23554 H 75.27790417350525 18.959393120649963 17.35618212434815 H 0.0 **** 0.06
23555 H 74.69008953555283 19.472710886326098 18.956054541126633 H 0.0 **** 0.06
23556 C 40.82299283404655 5.84872266583514 106.85444925613135 C 0.0 **** -0.24
23557 H 40.401239780609835 6.854267328604564 106.8529292720221 H 0.0 **** 0.06
23558 H 40.256762093068545 5.217101910703846 106.1686584442977 H 0.0 **** 0.06
23559 H 40.76941092156958 5.434428169411831 107.86082441863033 H 0.0 **** 0.06
23560 H 41.86450813831776 5.891969913074263 106.53321163156807 H 0.0 **** 0.06
23561 C 87.95160964410633 102.09477731245752 22.149311427309094 C 0.0 **** -0.24
23562 H 88.4575989372467 102.20302401277016 23.10879903393253 H 0.0 **** 0.06
23563 H 88.18456488960135 102.95272404646988 21.51756203191895 H 0.0 **** 0.06
23564 H 86.87460523837726 102.04444453877491 22.311077055335787 H 0.0 **** 0.06
23565 H 88.28920365507605 101.18155426458617 21.660716676241204 H 0.0 **** 0.06
23566 C 6.183335936468211 49.978979284042424 23.262656406103076 C 0.0 **** -0.24
23567 H 6.758969645578389 50.82357192055966 22.884505573036677 H 0.0 **** 0.06
23568 H 6.568493141673883 49.05461609794952 22.830109649654673 H 0.0 **** 0.06
23569 H 5.135975927870277 50.100082049450776 22.987654499422035 H 0.0 **** 0.06
23570 H 6.27128426738642 49.93619871013553 24.348341852744227 H 0.0 **** 0.06
23571 C 74.56789636046062 102.73251279144012 8.20174832181269 C 0.0 **** -0.24
23572 H 74.80699456939183 101.73833722641109 7.823102041672595 H 0.0 **** 0.06
23573 H 75.14095638391717 103.4776468103687 7.648687249513543 H 0.0 **** 0.06
23574 H 74.82360262172978 102.78954597570424 9.259207265163159 H 0.0 **** 0.06
23575 H 73.50325793102908 102.92348549873583 8.07440904642863 H 0.0 **** 0.06
23576 C 100.62158955909248 67.02494258317864 44.93937359163448 C 0.0 **** -0.24
23577 H 99.96193783097982 67.87244105037479 44.75120092720917 H 0.0 **** 0.06
23578 H 100.06782111685519 66.0954717366102 44.799933517449006 H 0.0 **** 0.06
23579 H 100.9955014566037 67.07587751971968 45.9616614444937 H 0.0 **** 0.06
23580 H 101.46010791930354 67.05579347722946 44.243289418589455 H 0.0 **** 0.06
23581 C 56.95693692132596 67.56783728384403 60.08463571542535 C 0.0 **** -0.24
23582 H 56.91073009936861 68.38996426676334 60.79914193977902 H 0.0 **** 0.06
23583 H 56.76437299292735 67.94720227342242 59.080703273219285 H 0.0 **** 0.06
23584 H 56.20661519672592 66.82027356971508 60.34221827085241 H 0.0 **** 0.06
23585 H 57.94780042939294 67.1147251928794 60.11757372822319 H 0.0 **** 0.06
23586 C 80.80511396567553 83.51283576118198 16.463488420771426 C 0.0 **** -0.24
23587 H 79.83292090732988 83.65548015600325 16.93589421284119 H 0.0 **** 0.06
23588 H 80.9234317868725 84.23181383856314 15.652436992495836 H 0.0 **** 0.06
23589 H 80.87004900892899 82.50096830991754 16.064758428129977 H 0.0 **** 0.06
23590 H 81.5930648176599 83.66322401526583 17.200891121773907 H 0.0 **** 0.06
23591 C 39.184386591648064 66.87499903302881 103.36208940944982 C 0.0 **** -0.24
23592 H 40.2460529043517 66.812390417485 103.12310662595334 H 0.0 **** 0.06
23593 H 38.99459170405842 66.36399217330109 104.3066199404808 H 0.0 **** 0.06
23594 H 38.6050277972885 66.40163921175719 102.56960419675542 H 0.0 **** 0.06
23595 H 38.893719544098246 67.9220577226711 103.45028669938941 H 0.0 **** 0.06
23596 C 54.437682137794624 3.732987495845336 66.4152080971057 C 0.0 **** -0.24
23597 H 53.35743774973068 3.870835312826145 66.35255741141683 H 0.0 **** 0.06
23598 H 54.65436151766569 2.7932525942431283 66.92337277199226 H 0.0 **** 0.06
23599 H 54.87660990054603 4.558981407667858 66.97539599295132 H 0.0 **** 0.06
23600 H 54.85959061443161 3.710975011960258 65.41097874714995 H 0.0 **** 0.06
23601 C 97.19235151043594 89.63068005775065 64.79894107866414 C 0.0 **** -0.24
23602 H 98.01019066300194 90.16738098612993 65.27959187654088 H 0.0 **** 0.06
23603 H 97.29724402118367 89.70215115855208 63.71595979630839 H 0.0 **** 0.06
23604 H 96.24174075408186 90.07149508411456 65.1011998080476 H 0.0 **** 0.06
23605 H 97.21856832906269 88.58279250256672 65.09884497986346 H 0.0 **** 0.06
23606 C 18.279723130375658 17.353959138215487 92.90954193775886 C 0.0 **** -0.24
23607 H 18.516917371925246 16.329491885628443 93.19677305839227 H 0.0 **** 0.06
23608 H 19.128929535723984 17.999627084499053 93.13681147308375 H 0.0 **** 0.06
23609 H 17.405721925062693 17.69391791605193 93.46597786756561 H 0.0 **** 0.06
23610 H 18.068174432784218 17.391922832423376 91.8413454101665 H 0.0 **** 0.06
23611 C 99.82212919326003 89.24143990478552 4.455681097305273 C 0.0 **** -0.24
23612 H 99.75496469841693 90.29738479242135 4.715519949117834 H 0.0 **** 0.06
23613 H 100.0323601689835 88.65877978319818 5.352964288794567 H 0.0 **** 0.06
23614 H 100.62510122190858 89.09547508222232 3.73218663361223 H 0.0 **** 0.06
23615 H 98.87733566184235 88.91346516594433 4.021907269127041 H 0.0 **** 0.06
23616 C 10.117350998430396 38.42016864407884 57.19232835543996 C 0.0 **** -0.24
23617 H 9.887273095052592 39.23082288052851 57.88275413424551 H 0.0 **** 0.06
23618 H 9.273360688396679 37.73250195951172 57.14481187769423 H 0.0 **** 0.06
23619 H 11.002059963861768 37.88671253224402 57.53955965319219 H 0.0 **** 0.06
23620 H 10.30784896804417 38.83203184762516 56.20086164481658 H 0.0 **** 0.06
23621 C 48.0253216198266 19.46963816103967 15.366689309768049 C 0.0 **** -0.24
23622 H 48.716183336460055 19.542135160133412 16.207717455386558 H 0.0 **** 0.06
23623 H 47.24256749560677 20.2205976162481 15.475587731119532 H 0.0 **** 0.06
23624 H 47.57759765540573 18.476648967911544 15.34932259258889 H 0.0 **** 0.06
23625 H 48.567669863696935 19.641686878330347 14.436994421685341 H 0.0 **** 0.06
23626 C 79.78124436507244 79.56397212202518 1.0410816634700666 C 0.0 **** -0.24
23627 H 78.83096111262583 79.26321983116429 0.5985064290657931 H 0.0 **** 0.06
23628 H 79.82405943055099 80.65084265936827 1.1058136072965112 H 0.0 **** 0.06
23629 H 80.60131439746777 79.20433331989148 0.41927859016783486 H 0.0 **** 0.06
23630 H 79.86813743668736 79.13560554808737 2.0396399449222713 H 0.0 **** 0.06
23631 C 96.12065971547531 90.13830644220619 4.899265064142298 C 0.0 **** -0.24
23632 H 95.47590903678491 90.99154850638433 4.6882377755103875 H 0.0 **** 0.06
23633 H 95.50929887859405 89.28799396386393 5.204443188342751 H 0.0 **** 0.06
23634 H 96.81326725237358 90.39516287513803 5.700126149096008 H 0.0 **** 0.06
23635 H 96.68217070436461 89.87780827635572 4.002126794471181 H 0.0 **** 0.06
23636 C 26.665956048556126 115.41361167508933 30.93868648566138 C 0.0 **** -0.24
23637 H 26.920058274560375 115.16056045626931 29.90952610671161 H 0.0 **** 0.06
23638 H 25.598352222486625 115.2601721022478 31.096323211394747 H 0.0 **** 0.06
23639 H 26.914888207135647 116.45819672665544 31.12704742884057 H 0.0 **** 0.06
23640 H 27.2298782823938 114.77653129396376 31.61971529776713 H 0.0 **** 0.06
23641 C 18.750547453088018 86.5981658607381 103.28737220531772 C 0.0 **** -0.24
23642 H 18.300318775966616 85.6893532080399 103.6867212596963 H 0.0 **** 0.06
23643 H 19.010440294245313 86.44581263924377 102.24034493271762 H 0.0 **** 0.06
23644 H 19.650318506233134 86.83679714410235 103.85436966823127 H 0.0 **** 0.06
23645 H 18.041296422674748 87.42155524947646 103.3703411354584 H 0.0 **** 0.06
23646 C 109.92510572958793 106.07857759521468 102.56485469887923 C 0.0 **** -0.24
23647 H 108.92460734342234 106.5060584691866 102.62928322122337 H 0.0 **** 0.06
23648 H 109.99619633189393 105.21981969333865 103.23332686083859 H 0.0 **** 0.06
23649 H 110.65992788203238 106.82804120608313 102.85610814832543 H 0.0 **** 0.06
23650 H 110.11795414656596 105.75869460590496 101.54037708435663 H 0.0 **** 0.06
23651 C 89.8881141094005 52.78119748198525 37.734344365041125 C 0.0 **** -0.24
23652 H 90.72623045979122 52.38540904590195 38.30755936557114 H 0.0 **** 0.06
23653 H 90.2551348970529 53.190775718085526 36.79221672558583 H 0.0 **** 0.06
23654 H 89.3963059464825 53.56811352416493 38.305618206358815 H 0.0 **** 0.06
23655 H 89.17736651422354 51.98114356286302 37.53102820805992 H 0.0 **** 0.06
23656 C 13.026539962099122 107.09657124285769 4.67089977566458 C 0.0 **** -0.24
23657 H 13.868193909981727 106.53597630572727 4.2635633778945135 H 0.0 **** 0.06
23658 H 13.28941399662915 107.47889987732734 5.657218194067028 H 0.0 **** 0.06
23659 H 12.159612375510164 106.44176795567466 4.75206695670326 H 0.0 **** 0.06
23660 H 12.792049701672624 107.9297222113247 4.008044761327966 H 0.0 **** 0.06
23661 C 86.75802100270985 43.79506947241816 108.39585397346988 C 0.0 **** -0.24
23662 H 85.7996466663038 44.30885645060391 108.33295373752767 H 0.0 **** 0.06
23663 H 87.01420060995767 43.63142866448902 109.44312314735858 H 0.0 **** 0.06
23664 H 87.52860256298368 44.404043243618105 107.92344212590754 H 0.0 **** 0.06
23665 H 86.6896146687316 42.83459453411382 107.88349226069269 H 0.0 **** 0.06
23666 C 90.24078342269922 23.485442858859216 4.450360817066013 C 0.0 **** -0.24
23667 H 90.78650024708611 22.601884017210693 4.121928503604266 H 0.0 **** 0.06
23668 H 89.5343276965782 23.786001698593253 3.675847599060461 H 0.0 **** 0.06
23669 H 90.94269716429335 24.29828468846773 4.636522632928177 H 0.0 **** 0.06
23670 H 89.6982940232864 23.25707032026247 5.368199716532558 H 0.0 **** 0.06
23671 C 40.80735260539208 32.395616750191 39.74999741508576 C 0.0 **** -0.24
23672 H 39.90313619446147 32.89201335478812 40.10436748304269 H 0.0 **** 0.06
23673 H 40.78138770809235 31.344537096498918 40.03831040116649 H 0.0 **** 0.06
23674 H 41.68091503697647 32.87378495956516 40.19397247237741 H 0.0 **** 0.06
23675 H 40.86260622270427 32.47391557808856 38.66431593134029 H 0.0 **** 0.06
23676 C 109.4475495456409 56.15572337595739 35.774338193562244 C 0.0 **** -0.24
23677 H 110.12021596640605 56.22012004608146 34.9194581537466 H 0.0 **** 0.06
23678 H 110.02873294826847 55.98945561068595 36.68159112007121 H 0.0 **** 0.06
23679 H 108.7542031042106 55.32699108276091 35.629806252998755 H 0.0 **** 0.06
23680 H 108.88781146099689 57.08695369319693 35.86635117134387 H 0.0 **** 0.06
23681 C 60.77568553926605 8.763800492640257 50.77121035070442 C 0.0 **** -0.24
23682 H 61.768861598881614 9.165978045292945 50.97387648215371 H 0.0 **** 0.06
23683 H 60.129154561016406 9.561839076341073 50.4062403840843 H 0.0 **** 0.06
23684 H 60.359132387768454 8.34773980124129 51.688497075006495 H 0.0 **** 0.06
23685 H 60.84868303507389 7.980138305620699 50.01668868397235 H 0.0 **** 0.06
23686 C 4.958422401390948 96.76146454821284 4.044609626598657 C 0.0 **** -0.24
23687 H 4.631785993878367 97.13275012955566 5.016135054607446 H 0.0 **** 0.06
23688 H 5.452507922305784 97.56410857012764 3.497408549235672 H 0.0 **** 0.06
23689 H 4.092982547809555 96.41431289441641 3.479781706565518 H 0.0 **** 0.06
23690 H 5.654483267945238 95.93517453789403 4.187357750648943 H 0.0 **** 0.06
23691 C 32.58435198152242 48.15364250673418 33.91530287389679 C 0.0 **** -0.24
23692 H 31.90619134734183 47.385365241774224 33.54311717180053 H 0.0 **** 0.06
23693 H 32.00768176648117 49.013316541585354 34.25529982823639 H 0.0 **** 0.06
23694 H 33.25851744649188 48.46039903763226 33.11551769603807 H 0.0 **** 0.06
23695 H 33.165530934931695 47.75366441940205 34.74609075944397 H 0.0 **** 0.06
23696 C 53.75765176935761 92.67222887603748 78.12825698721522 C 0.0 **** -0.24
23697 H 54.28725681177007 92.0315341816816 78.83445799625022 H 0.0 **** 0.06
23698 H 52.685857511636925 92.4935351404439 78.21037606852676 H 0.0 **** 0.06
23699 H 54.08821316708971 92.4449044437664 77.11478141829889 H 0.0 **** 0.06
23700 H 53.971584114362436 93.7169161242577 78.35417837815041 H 0.0 **** 0.06
23701 C 54.482938596671204 2.4606841328574944 101.28511578132648 C 0.0 **** -0.24
23702 H 54.54044878777317 1.5245608086043063 101.84032804068232 H 0.0 **** 0.06
23703 H 55.417236951525545 2.6211887734759927 100.74604354336779 H 0.0 **** 0.06
23704 H 54.31805199494667 3.2849269913664756 101.97960993502883 H 0.0 **** 0.06
23705 H 53.65736452700428 2.412153437030895 100.57489947214395 H 0.0 **** 0.06
23706 C 107.2860163820585 14.563467418538124 103.68827084530011 C 0.0 **** -0.24
23707 H 108.33630329765558 14.544694609001553 103.39586018964164 H 0.0 **** 0.06
23708 H 106.66415492583249 14.348137591802043 102.81879950259929 H 0.0 **** 0.06
23709 H 107.03594044301201 15.548649253379608 104.07972664238741 H 0.0 **** 0.06
23710 H 107.10996644215408 13.810495753398385 104.45692752777595 H 0.0 **** 0.06
23711 C 35.71528293405834 71.46189216321079 8.149113320669272 C 0.0 **** -0.24
23712 H 35.20678779416397 72.30841731745522 8.611863675943312 H 0.0 **** 0.06
23713 H 35.045604541375155 70.98140175670997 7.436331626170073 H 0.0 **** 0.06
23714 H 35.99962498497672 70.7449084072039 8.920355144907077 H 0.0 **** 0.06
23715 H 36.60810918009321 71.8120536063343 7.632070610295415 H 0.0 **** 0.06
23716 C 33.631011272195735 108.61445111835747 104.53206576235203 C 0.0 **** -0.24
23717 H 32.76703830925612 109.0222451762681 105.05658046843539 H 0.0 **** 0.06
23718 H 34.543967479710204 108.91958397803153 105.04411840267929 H 0.0 **** 0.06
23719 H 33.64527742024103 108.99024795879328 103.50865664714121 H 0.0 **** 0.06
23720 H 33.56750444555746 107.52664612363938 104.5186080987379 H 0.0 **** 0.06
23721 C 85.70884413150048 53.30564031246729 109.84415030702115 C 0.0 **** -0.24
23722 H 84.71942002763569 53.28018232753493 110.30066514120733 H 0.0 **** 0.06
23723 H 86.15006053464077 52.30851688873389 109.8787919905743 H 0.0 **** 0.06
23724 H 86.34305750212764 54.00333057141671 110.3902241259136 H 0.0 **** 0.06
23725 H 85.62201834277283 53.62831483233799 108.80627630468513 H 0.0 **** 0.06
23726 C 94.24535448184236 43.82612998372082 75.44745253308167 C 0.0 **** -0.24
23727 H 94.74746855083714 43.351996173244174 74.60417526372652 H 0.0 **** 0.06
23728 H 93.19356739325929 43.54183678500357 75.45094595696241 H 0.0 **** 0.06
23729 H 94.32889206137253 44.90894178134204 75.35665040789411 H 0.0 **** 0.06
23730 H 94.71323388935855 43.50204084120969 76.37667049012987 H 0.0 **** 0.06
23731 C 5.749915433375829 110.04148304561527 89.81353792497103 C 0.0 **** -0.24
23732 H 5.906856335009012 109.05615542390407 89.37428968518515 H 0.0 **** 0.06
23733 H 6.581827734207833 110.28057871055488 90.47682233998049 H 0.0 **** 0.06
23734 H 4.819516121388066 110.04227574213007 90.3819141133842 H 0.0 **** 0.06
23735 H 5.69187031911283 110.78766772900363 89.02059896432411 H 0.0 **** 0.06
23736 C 103.91153438648979 94.8664078678012 114.58943083961478 C 0.0 **** -0.24
23737 H 103.29312482480432 94.94687550501524 115.48366490584729 H 0.0 **** 0.06
23738 H 104.93613085901228 94.62848335650199 114.8779599556774 H 0.0 **** 0.06
23739 H 103.89618828973585 95.8132897563884 114.0509616442989 H 0.0 **** 0.06
23740 H 103.52105037651486 94.07658465566465 113.94808891156488 H 0.0 **** 0.06
23741 C 28.33216122880259 97.82290869024729 52.1732080146441 C 0.0 **** -0.24
23742 H 28.05813992511105 96.78007442968382 52.01386251455699 H 0.0 **** 0.06
23743 H 27.469200648942376 98.45984147934104 51.97514309396897 H 0.0 **** 0.06
23744 H 29.14467664592678 98.09205519376559 51.49825481143111 H 0.0 **** 0.06
23745 H 28.655829072404572 97.95991219723146 53.205023470778286 H 0.0 **** 0.06
23746 C 4.154029258387595 44.274624999964715 33.65951784457526 C 0.0 **** -0.24
23747 H 3.3852477508830816 43.502138219391924 33.66927071721094 H 0.0 **** 0.06
23748 H 4.978570666253717 43.97431777569214 34.30762055126057 H 0.0 **** 0.06
23749 H 3.73205405575186 45.21280163555997 34.01903065156101 H 0.0 **** 0.06
23750 H 4.521722936961794 44.407348210106136 32.64167310431862 H 0.0 **** 0.06
23751 C 7.9478781266310214 71.83885986599805 2.184021676662354 C 0.0 **** -0.24
23752 H 8.165787014132281 72.84994331154178 2.5293128585216778 H 0.0 **** 0.06
23753 H 8.12434343195596 71.13182111220556 2.994470409456909 H 0.0 **** 0.06
23754 H 8.595382301836409 71.59645108266739 1.3411929239069451 H 0.0 **** 0.06
23755 H 6.905309762018598 71.77968986294249 1.869547268814415 H 0.0 **** 0.06
23756 C 59.34836932776426 13.385127124453817 116.59147918952803 C 0.0 **** -0.24
23757 H 59.274413152200395 13.717400868867713 117.62746068934634 H 0.0 **** 0.06
23758 H 58.35298600107092 13.149142392018334 116.21429854130075 H 0.0 **** 0.06
23759 H 59.97729517491803 12.496419868324352 116.53960768218158 H 0.0 **** 0.06
23760 H 59.7887024362102 14.17814224833478 115.98645706289673 H 0.0 **** 0.06
23761 C 98.84257534172141 91.19681529768829 110.51776257773344 C 0.0 **** -0.24
23762 H 97.9762685758185 91.07811076991379 109.86794590018214 H 0.0 **** 0.06
23763 H 98.66911369192073 90.66623522917581 111.45405463719408 H 0.0 **** 0.06
23764 H 99.00057486835118 92.25598226025429 110.72354528056795 H 0.0 **** 0.06
23765 H 99.72434423079545 90.78693293140927 110.02550449298944 H 0.0 **** 0.06
23766 C 60.70649092872787 110.60288760682153 39.763199268421396 C 0.0 **** -0.24
23767 H 60.67141301505233 111.59917593398997 39.32319241031283 H 0.0 **** 0.06
23768 H 59.70712115766282 110.317227039534 40.09504291115426 H 0.0 **** 0.06
23769 H 61.386037397839296 110.60557677779958 40.615936261408194 H 0.0 **** 0.06
23770 H 61.0594510783178 109.88914300135995 39.01840280433902 H 0.0 **** 0.06
23771 C 90.4993504170917 15.034330442007729 0.12507035695585955 C 0.0 **** -0.24
23772 H 90.15525093130339 14.072961334556169 -0.25770243361351675 H 0.0 **** 0.06
23773 H 90.93086338933728 14.897591457623577 1.1164764048967015 H 0.0 **** 0.06
23774 H 89.65543373659494 15.721441776336519 0.18832087791027163 H 0.0 **** 0.06
23775 H 91.25248973252837 15.443745841013254 -0.5472428846792923 H 0.0 **** 0.06
23776 C 64.97763575097272 55.39053412323398 95.13224601484666 C 0.0 **** -0.24
23777 H 64.98937005527642 54.75906213921462 94.24386805180859 H 0.0 **** 0.06
23778 H 65.31370398090277 54.812298362424144 95.99317257251346 H 0.0 **** 0.06
23779 H 63.96378768967472 55.75034506480256 95.3082663935017 H 0.0 **** 0.06
23780 H 65.64369104408723 56.240970165544695 94.9823696617517 H 0.0 **** 0.06
23781 C 87.44701494241696 75.4277625458368 6.282236844413376 C 0.0 **** -0.24
23782 H 88.24403084270386 74.94283490028158 6.847141154906808 H 0.0 **** 0.06
23783 H 87.8335036011917 75.75489031469178 5.317071110043571 H 0.0 **** 0.06
23784 H 87.08183805730428 76.29087358662633 6.839361762165396 H 0.0 **** 0.06
23785 H 86.63111504253112 74.7222658399289 6.127625488606611 H 0.0 **** 0.06
23786 C 41.778178075194205 115.90202388228016 43.14448152573811 C 0.0 **** -0.24
23787 H 42.24504638771063 115.69202488244142 44.10658304898505 H 0.0 **** 0.06
23788 H 42.10849860819769 115.16367825176155 42.41291326553848 H 0.0 **** 0.06
23789 H 42.06684397163809 116.89850394927781 42.81198435407543 H 0.0 **** 0.06
23790 H 40.69473082966417 115.85294675358297 43.24826690559677 H 0.0 **** 0.06
23791 C 48.27250565358848 64.63600993293673 115.8070301220029 C 0.0 **** -0.24
23792 H 47.311619430706045 64.78482192008593 116.30090834343189 H 0.0 **** 0.06
23793 H 48.11079658039451 64.46070968472503 114.74364404968885 H 0.0 **** 0.06
23794 H 48.77562266813476 63.77391893534505 116.24613991161915 H 0.0 **** 0.06
23795 H 48.890026181528874 65.52314166160474 115.94075577168839 H 0.0 **** 0.06
23796 C 39.80032780857191 108.03554810015771 88.54364643860583 C 0.0 **** -0.24
23797 H 40.80765485551887 108.08553872920143 88.9588225559628 H 0.0 **** 0.06
23798 H 39.19612647069485 108.84203084904587 88.96052693910292 H 0.0 **** 0.06
23799 H 39.35118110266898 107.07556546806188 88.79623996564925 H 0.0 **** 0.06
23800 H 39.84967863520426 108.14015667436021 87.46030187467403 H 0.0 **** 0.06
23801 C 19.258383143422776 32.87625518832397 11.774261228700254 C 0.0 **** -0.24
23802 H 19.592072227194592 32.85015628094553 12.810778140610552 H 0.0 **** 0.06
23803 H 19.913735993334996 33.530468952530725 11.198339341618535 H 0.0 **** 0.06
23804 H 18.23686474571167 33.25436642691653 11.729921191416395 H 0.0 **** 0.06
23805 H 19.290728206934205 31.87025889295694 11.356294487671619 H 0.0 **** 0.06
23806 C 10.522626784273854 86.20590934207587 18.48783961388574 C 0.0 **** -0.24
23807 H 11.191462806777679 85.3563983528154 18.62776619356859 H 0.0 **** 0.06
23808 H 10.940760332381373 87.08261581263787 18.9845217900791 H 0.0 **** 0.06
23809 H 9.548105078521132 85.9754796826328 18.91763438837563 H 0.0 **** 0.06
23810 H 10.41172561852855 86.40977277546904 17.422923379701047 H 0.0 **** 0.06
23811 C 58.879711185521195 22.42433898405386 66.00582128762494 C 0.0 **** -0.24
23812 H 59.56121644420136 21.849313343760457 65.37968950829324 H 0.0 **** 0.06
23813 H 59.351518871405624 22.62311760661737 66.96815155182588 H 0.0 **** 0.06
23814 H 57.96177844779282 21.857409917576433 66.16046887913842 H 0.0 **** 0.06
23815 H 58.64432351005872 23.36843860480718 65.51459169785574 H 0.0 **** 0.06
23816 C 42.5263021927386 92.19570123224813 112.62911204455258 C 0.0 **** -0.24
23817 H 42.22164918447646 92.62901461873807 111.67675235010816 H 0.0 **** 0.06
23818 H 41.97080070829031 91.2744462013386 112.80369215461965 H 0.0 **** 0.06
23819 H 42.318497535840265 92.90347051025094 113.43195379246745 H 0.0 **** 0.06
23820 H 43.59426746784581 91.9780276951742 112.60464998180368 H 0.0 **** 0.06
23821 C 16.859804799958475 15.548878094368376 65.9428978770681 C 0.0 **** -0.24
23822 H 15.907341238242228 16.05328344893232 65.77998572270297 H 0.0 **** 0.06
23823 H 16.93032309985931 14.684839227972049 65.28288581896953 H 0.0 **** 0.06
23824 H 16.922677531052102 15.21980027244524 66.98103605709815 H 0.0 **** 0.06
23825 H 17.676482685106908 16.23807585921702 65.7310050605401 H 0.0 **** 0.06
23826 C 101.86342144464402 33.237242174597725 21.267888215760742 C 0.0 **** -0.24
23827 H 101.62960517256647 32.64237691451564 22.15154217101398 H 0.0 **** 0.06
23828 H 102.01576943459816 34.27676864061726 21.56008138046952 H 0.0 **** 0.06
23829 H 101.03793871492257 33.1761051609175 20.559689505906206 H 0.0 **** 0.06
23830 H 102.77207700235621 32.85399434734589 20.80288909353337 H 0.0 **** 0.06
23831 C 2.3058118663153806 104.38152990344545 93.15752023677672 C 0.0 **** -0.24
23832 H 2.7881385004137513 103.40357500774346 93.17156555108829 H 0.0 **** 0.06
23833 H 2.961457642843527 105.11567348243364 93.62649872849786 H 0.0 **** 0.06
23834 H 1.365649649771271 104.33013050356348 93.7053915653888 H 0.0 **** 0.06
23835 H 2.110380168593011 104.6739964500959 92.12572338206778 H 0.0 **** 0.06
23836 C 75.56007997968862 102.25552517053771 80.44530350007412 C 0.0 **** -0.24
23837 H 75.74258482771452 102.74543328546673 81.4022444804292 H 0.0 **** 0.06
23838 H 76.31195685671071 102.57884847148853 79.72449544887348 H 0.0 **** 0.06
23839 H 74.56882199599559 102.52505186509552 80.08283715702467 H 0.0 **** 0.06
23840 H 75.61985129992357 101.17553840521208 80.57407403147914 H 0.0 **** 0.06
23841 C 116.55132774547027 41.4205123489121 18.808548847989925 C 0.0 **** -0.24
23842 H 115.493013294913 41.64758393897779 18.683961831969384 H 0.0 **** 0.06
23843 H 116.66213029106774 40.42550813106675 19.24018225443399 H 0.0 **** 0.06
23844 H 117.00472296598423 42.15651978583918 19.47239505318646 H 0.0 **** 0.06
23845 H 117.04694327153598 41.45227154509746 17.83850836369976 H 0.0 **** 0.06
23846 C 70.25042194662635 23.437291313418967 3.0707043967999397 C 0.0 **** -0.24
23847 H 69.96418685806847 24.307673142189685 2.479803437413125 H 0.0 **** 0.06
23848 H 69.83793648863698 22.53789481538658 2.614726781077053 H 0.0 **** 0.06
23849 H 69.8625206560958 23.54335699875881 4.083479093084819 H 0.0 **** 0.06
23850 H 71.33752433180524 23.363918389258743 3.104316822609775 H 0.0 **** 0.06
23851 C 95.67723925700523 22.68562670365526 32.97052719176932 C 0.0 **** -0.24
23852 H 95.49742419130115 23.736387088745772 33.19875546504653 H 0.0 **** 0.06
23853 H 96.42692102378629 22.288963827708145 33.6545079838518 H 0.0 **** 0.06
23854 H 96.03486415878257 22.593063977793506 31.944951477182656 H 0.0 **** 0.06
23855 H 94.74856165695331 22.125630924310244 33.08341938369432 H 0.0 **** 0.06
23856 C 21.886965673973094 116.68159025033466 24.813566637595784 C 0.0 **** -0.24
23857 H 22.973674870935838 116.60134742654253 24.84346957165883 H 0.0 **** 0.06
23858 H 21.60180028724983 117.48974273443159 24.140868961702722 H 0.0 **** 0.06
23859 H 21.510867568242134 116.89075292406812 25.814910306675642 H 0.0 **** 0.06
23860 H 21.464411038106306 115.74237190547092 24.454825059638324 H 0.0 **** 0.06
23861 C 5.617912140046904 112.03837133870094 106.86420774677532 C 0.0 **** -0.24
23862 H 4.710331903577046 112.53655056790559 106.52208849378076 H 0.0 **** 0.06
23863 H 6.038936078456874 112.58910428376126 107.7058460773047 H 0.0 **** 0.06
23864 H 6.342540610576743 112.00691503069137 106.05068022168598 H 0.0 **** 0.06
23865 H 5.378109354104467 111.02216414578177 107.17701363863173 H 0.0 **** 0.06
23866 C 80.73997511882689 22.516762355741747 89.82109406815309 C 0.0 **** -0.24
23867 H 80.5598677652959 23.316582407394492 90.53852916595574 H 0.0 **** 0.06
23868 H 81.81252207314557 22.336926339650773 89.73942965253647 H 0.0 **** 0.06
23869 H 80.3447045606641 22.80643485313354 88.84701293883529 H 0.0 **** 0.06
23870 H 80.24314458965577 21.60784338366861 90.15824627148996 H 0.0 **** 0.06
23871 C 110.27262307927114 87.58286574673866 95.40898252703192 C 0.0 **** -0.24
23872 H 110.13208590740179 87.16110572325897 94.41452505549543 H 0.0 **** 0.06
23873 H 109.30607515852518 87.67892695878126 95.90345630458779 H 0.0 **** 0.06
23874 H 110.7368059650718 88.56471397188864 95.32453614943469 H 0.0 **** 0.06
23875 H 110.91667085044982 86.92545331671315 95.99371697704422 H 0.0 **** 0.06
23876 C 116.0730825332015 50.5252741200606 10.439698847039097 C 0.0 **** -0.24
23877 H 115.9008344431067 49.50099635359027 10.76976489777671 H 0.0 **** 0.06
23878 H 115.17534630069275 50.90492559981578 9.949918811428844 H 0.0 **** 0.06
23879 H 116.90641496290999 50.54521848261493 9.738643823705814 H 0.0 **** 0.06
23880 H 116.30804262480513 51.15038194081973 11.302694261514773 H 0.0 **** 0.06
23881 C 94.74327939567738 96.7909813216198 25.285560850765307 C 0.0 **** -0.24
23882 H 94.46873888540276 95.73719737104207 25.251402469688344 H 0.0 **** 0.06
23883 H 95.55604724246433 96.97735103349305 24.584235199142825 H 0.0 **** 0.06
23884 H 95.06712191477311 97.04884950378076 26.293971976272474 H 0.0 **** 0.06
23885 H 93.88136637837249 97.39963915099287 25.014679911541464 H 0.0 **** 0.06
23886 C 77.61782281610064 114.41022186805472 17.044628720859095 C 0.0 **** -0.24
23887 H 77.90266182453402 114.31174999975231 15.997096383079736 H 0.0 **** 0.06
23888 H 76.61753735588579 113.99984708337232 17.189651512811395 H 0.0 **** 0.06
23889 H 77.62306270913265 115.46328771090411 17.32523309870868 H 0.0 **** 0.06
23890 H 78.327486656166 113.8646989820999 17.666611018817008 H 0.0 **** 0.06
23891 C 101.71225257475984 42.042490569640826 73.02052492147666 C 0.0 **** -0.24
23892 H 100.73812272203148 42.06971189327144 72.53293395055002 H 0.0 **** 0.06
23893 H 101.69517645918418 42.685606140100276 73.90127904295511 H 0.0 **** 0.06
23894 H 102.47536169380894 42.396470664656796 72.32692592659308 H 0.0 **** 0.06
23895 H 101.93945376464606 41.019601001390804 73.321361313115 H 0.0 **** 0.06
23896 C 12.856509461538785 8.286171453894923 80.21514513961489 C 0.0 **** -0.24
23897 H 12.291596042313945 8.910767035711373 79.52396130865154 H 0.0 **** 0.06
23898 H 13.800544909433167 8.775195998513311 80.45734151791294 H 0.0 **** 0.06
23899 H 13.055759367602786 7.320066451369296 79.75182716859129 H 0.0 **** 0.06
23900 H 12.277848068487902 8.139312727035676 81.12675384611182 H 0.0 **** 0.06
23901 C 38.07907754106495 95.21933776877589 92.54843892549587 C 0.0 **** -0.24
23902 H 38.99801516818454 94.63379143789479 92.59224717337071 H 0.0 **** 0.06
23903 H 38.22108554211894 96.15774416742869 93.08379402430586 H 0.0 **** 0.06
23904 H 37.26812871394216 94.65598047956291 93.00994247208388 H 0.0 **** 0.06
23905 H 37.83043592217405 95.42795451837591 91.50856427919717 H 0.0 **** 0.06
23906 C 10.630099854505318 9.590683034384753 44.29376249065508 C 0.0 **** -0.24
23907 H 9.641230219880981 10.017140819619073 44.46249474621512 H 0.0 **** 0.06
23908 H 10.878483390570466 8.915572092954491 45.11196584725572 H 0.0 **** 0.06
23909 H 11.367149507402928 10.392552665527873 44.246934207528106 H 0.0 **** 0.06
23910 H 10.631800126363203 9.03972012460315 43.3527024460195 H 0.0 **** 0.06
23911 C 0.17372426915099481 115.64653100455064 63.884150474012976 C 0.0 **** -0.24
23912 H 0.9648865913962084 116.30769926781875 63.52768898744531 H 0.0 **** 0.06
23913 H -0.003050679781836152 114.86370189461553 63.14714089599699 H 0.0 **** 0.06
23914 H -0.7395229796053968 116.22089865119557 64.03232302557541 H 0.0 **** 0.06
23915 H 0.4769062339968002 115.19532478332644 64.8291862596937 H 0.0 **** 0.06
23916 C 22.660658963848277 22.15561658235319 41.762876983759156 C 0.0 **** -0.24
23917 H 23.093982536972987 22.87240000183121 42.4608377350348 H 0.0 **** 0.06
23918 H 21.668025907320555 21.86652462974672 42.10810071070608 H 0.0 **** 0.06
23919 H 23.297741791199485 21.2724604701221 41.70742642104682 H 0.0 **** 0.06
23920 H 22.58382246334631 22.61119846943089 40.77547266919947 H 0.0 **** 0.06
23921 C 5.087519349183575 28.3631474635458 39.14878731649941 C 0.0 **** -0.24
23922 H 4.441620016126972 27.54691179723617 38.822818843229555 H 0.0 **** 0.06
23923 H 5.6524495128806205 28.741053004424174 38.296082013673896 H 0.0 **** 0.06
23924 H 5.777827107781938 27.998177436934 39.90886757903189 H 0.0 **** 0.06
23925 H 4.478018160672486 29.16494619548663 39.56498922734613 H 0.0 **** 0.06
23926 C 3.1643316971362125 80.22410040621477 77.468389596164 C 0.0 **** -0.24
23927 H 3.0275173209226285 79.28726915079926 76.92760864977885 H 0.0 **** 0.06
23928 H 3.922237075526473 80.82620943306324 76.96634360731659 H 0.0 **** 0.06
23929 H 3.4865527253246142 80.00991778777649 78.48761449993293 H 0.0 **** 0.06
23930 H 2.2220237694510576 80.77081665748108 77.4915419891093 H 0.0 **** 0.06
23931 C 65.76978724787094 110.72753119204384 20.536172905295548 C 0.0 **** -0.24
23932 H 64.93205127072551 110.62308823530644 19.846331550332742 H 0.0 **** 0.06
23933 H 66.5986835463402 111.22165996846026 20.027929137350192 H 0.0 **** 0.06
23934 H 66.08687900059334 109.74047685209362 20.873145502662958 H 0.0 **** 0.06
23935 H 65.46102826680067 111.32310002287193 21.39493922418986 H 0.0 **** 0.06
23936 C 42.92321271105295 15.320232856123482 4.520690172090015 C 0.0 **** -0.24
23937 H 43.81784553938516 15.274299411520929 5.140903950325418 H 0.0 **** 0.06
23938 H 42.060888298191145 15.554946762794316 5.144231605501732 H 0.0 **** 0.06
23939 H 42.76868497087091 14.356407069618285 4.034307532820565 H 0.0 **** 0.06
23940 H 43.04535381382122 16.09442769098405 3.7621903619785204 H 0.0 **** 0.06
23941 C 56.47750250152453 25.281865863815845 73.26419960140251 C 0.0 **** -0.24
23942 H 56.403524229683136 24.35880453341813 72.68946579753404 H 0.0 **** 0.06
23943 H 56.34503856776855 25.062218248215437 74.3235103143356 H 0.0 **** 0.06
23944 H 55.702883003075364 25.97527493427011 72.93637270858997 H 0.0 **** 0.06
23945 H 57.45862584501203 25.731152778378444 73.10521433956163 H 0.0 **** 0.06
23946 C 4.012825612696631 30.968630039986493 103.77805037937685 C 0.0 **** -0.24
23947 H 4.405007587036209 30.64513692618992 102.81304231617332 H 0.0 **** 0.06
23948 H 4.200470986379472 32.035059339860766 103.90588922057987 H 0.0 **** 0.06
23949 H 4.507569190051683 30.413905755241956 104.57470066030149 H 0.0 **** 0.06
23950 H 2.9406838853787747 30.781076119479934 103.8154601426161 H 0.0 **** 0.06
23951 C 67.72500977502295 71.3464651491123 114.63644577719268 C 0.0 **** -0.24
23952 H 66.98936355286787 71.37832143232279 115.43993738270254 H 0.0 **** 0.06
23953 H 67.74724909453889 72.3099828188731 114.12700579575232 H 0.0 **** 0.06
23954 H 67.45289402062858 70.56536753707033 113.92546505170733 H 0.0 **** 0.06
23955 H 68.70874403178419 71.13138061973675 115.05298927764773 H 0.0 **** 0.06
23956 C 43.1624925444294 46.41748712443126 94.9861303769257 C 0.0 **** -0.24
23957 H 42.81826237787115 45.42762508496867 95.2880737178692 H 0.0 **** 0.06
23958 H 42.333178124233086 47.12325559455684 95.04289728509565 H 0.0 **** 0.06
23959 H 43.53562627458422 46.37562898332607 93.96351510193728 H 0.0 **** 0.06
23960 H 43.96224269610954 46.74098756143627 95.65192095525131 H 0.0 **** 0.06
23961 C 67.03915163500994 6.077694431916484 82.73993588086859 C 0.0 **** -0.24
23962 H 66.43649258659366 5.181415650758339 82.59703621238845 H 0.0 **** 0.06
23963 H 68.09583233409353 5.817329442179101 82.68302447091418 H 0.0 **** 0.06
23964 H 66.82261186648361 6.508068756990383 83.71823210211124 H 0.0 **** 0.06
23965 H 66.80108152018761 6.803813216504182 81.9627280006037 H 0.0 **** 0.06
23966 C 19.489722773119524 111.21828696777511 77.60044238331668 C 0.0 **** -0.24
23967 H 18.747777021214063 111.5053889371824 78.34519059192999 H 0.0 **** 0.06
23968 H 18.989002994088764 110.98849332434943 76.65941071247093 H 0.0 **** 0.06
23969 H 20.0333504818571 110.33938922835632 77.94738713156093 H 0.0 **** 0.06
23970 H 20.18851369511259 112.0408348087665 77.44877086316762 H 0.0 **** 0.06
23971 C 24.085026547071976 27.17598144394045 92.25170051474214 C 0.0 **** -0.24
23972 H 24.471023822822502 28.120223619491952 91.86653064171418 H 0.0 **** 0.06
23973 H 24.3421145779312 26.370966775067465 91.56297697466891 H 0.0 **** 0.06
23974 H 23.001645872242563 27.23916984980972 92.34904757770425 H 0.0 **** 0.06
23975 H 24.52665158818857 26.975356996219645 93.2280954911381 H 0.0 **** 0.06
23976 C 101.89591389308845 110.62960643658677 115.50251356794936 C 0.0 **** -0.24
23977 H 101.76885343661809 111.61400483326395 115.05251092553905 H 0.0 **** 0.06
23978 H 102.81838064600348 110.1785043901554 115.1359020001085 H 0.0 **** 0.06
23979 H 101.05025841156424 109.99535732055054 115.23530976686453 H 0.0 **** 0.06
23980 H 101.94554825388789 110.72968709406953 116.58725976800721 H 0.0 **** 0.06
23981 C 9.596264373615927 26.150196174561728 76.93690453025465 C 0.0 **** -0.24
23982 H 9.374076502415495 26.136627516170762 78.00446599108488 H 0.0 **** 0.06
23983 H 10.547913298065215 25.649366430904905 76.7569048023114 H 0.0 **** 0.06
23984 H 9.656335831412228 27.182232305185607 76.59190193761401 H 0.0 **** 0.06
23985 H 8.804227848932229 25.631955926788237 76.3958840286158 H 0.0 **** 0.06
23986 C 112.96888039595744 91.17997219925005 115.13797967651092 C 0.0 **** -0.24
23987 H 113.05493485198062 92.05229470223986 115.78610240006819 H 0.0 **** 0.06
23988 H 113.96310932987058 90.79189488570523 114.91616939241467 H 0.0 **** 0.06
23989 H 112.47466768679232 91.46479122543442 114.20903086307972 H 0.0 **** 0.06
23990 H 112.38280971518601 90.41090798362058 115.64061605048114 H 0.0 **** 0.06
23991 C 78.1122618278433 106.82361143616933 88.90632918971914 C 0.0 **** -0.24
23992 H 78.35618001730907 106.53438779370993 87.88351071290555 H 0.0 **** 0.06
23993 H 77.28600389343657 106.21186936975255 89.26944828169482 H 0.0 **** 0.06
23994 H 77.82292047945543 107.87436325694227 88.9270455541864 H 0.0 **** 0.06
23995 H 78.98393912410083 106.67393683715954 89.5430788626677 H 0.0 **** 0.06
23996 C 23.82450638879658 11.627960462947485 30.030823936904937 C 0.0 **** -0.24
23997 H 23.290043152954638 11.846728191273698 30.956032442159596 H 0.0 **** 0.06
23998 H 23.72571918160301 12.4705424757056 29.34737494137937 H 0.0 **** 0.06
23999 H 23.402986949056668 10.734189455922603 29.570677523054 H 0.0 **** 0.06
24000 H 24.87805942619218 11.460329137242795 30.252748825501016 H 0.0 **** 0.06
24001 C 49.69030797603111 77.25723481106215 6.126617928575513 C 0.0 **** -0.24
24002 H 50.4155345203977 76.50264065438577 6.430853155048283 H 0.0 **** 0.06
24003 H 49.98880676939547 77.68264303314965 5.168991580098748 H 0.0 **** 0.06
24004 H 49.65020767742496 78.04627596874073 6.878380560468315 H 0.0 **** 0.06
24005 H 48.70663732749372 76.7972180685384 6.029650679116628 H 0.0 **** 0.06
24006 C 11.139476314104684 16.798410291984567 7.159369573291201 C 0.0 **** -0.24
24007 H 11.191707751051126 16.75625960055936 6.07066655648498 H 0.0 **** 0.06
24008 H 10.15171473899943 16.476251886318863 7.487416731448718 H 0.0 **** 0.06
24009 H 11.318752618356825 17.821038462743672 7.491853583107343 H 0.0 **** 0.06
24010 H 11.897666802280071 16.13981170214535 7.584352056410239 H 0.0 **** 0.06
24011 C 69.24279978274126 97.40364159313805 20.410574920384306 C 0.0 **** -0.24
24012 H 69.24144641528187 98.29379494524076 19.782498435396477 H 0.0 **** 0.06
24013 H 70.22242149158438 96.92647799047731 20.361592634148096 H 0.0 **** 0.06
24014 H 68.48143299767796 96.70821121099993 20.056725812361847 H 0.0 **** 0.06
24015 H 69.0269907461346 97.68542442624272 21.440871394305063 H 0.0 **** 0.06
24016 C 92.71351733859501 53.932769734160814 114.38028380172035 C 0.0 **** -0.24
24017 H 91.77585959113986 53.38488616278913 114.28590945813619 H 0.0 **** 0.06
24018 H 92.78302052277326 54.672362684390144 113.58207857096049 H 0.0 **** 0.06
24019 H 93.54961122797158 53.23874853341962 114.30721241429478 H 0.0 **** 0.06
24020 H 92.74328934891449 54.43680409347459 115.34682661900803 H 0.0 **** 0.06
24021 C 12.564537219237831 107.89945202593674 10.822354418431587 C 0.0 **** -0.24
24022 H 13.009206111575836 108.49647751384666 11.618964829046291 H 0.0 **** 0.06
24023 H 13.20892045756787 107.04607376885247 10.606044724183533 H 0.0 **** 0.06
24024 H 12.45915931135578 108.51152010151444 9.926872925268839 H 0.0 **** 0.06
24025 H 11.584537992393948 107.54436564939277 11.137850892482675 H 0.0 **** 0.06
24026 C 43.689988391169415 38.87384069272767 115.99025605932981 C 0.0 **** -0.24
24027 H 43.7850064267714 39.259891167181735 114.97595112575297 H 0.0 **** 0.06
24028 H 42.64369831099063 38.64799702179397 116.196289246166 H 0.0 **** 0.06
24029 H 44.04611461461797 39.62198962762682 116.6988315882575 H 0.0 **** 0.06
24030 H 44.28448066710874 37.966095604689826 116.0903995386403 H 0.0 **** 0.06
24031 C 101.03873981269328 110.91578850699534 3.785680081571984 C 0.0 **** -0.24
24032 H 100.78055723036672 111.7000621264302 3.074121505773526 H 0.0 **** 0.06
24033 H 100.17908896898274 110.70374900119103 4.421019055601148 H 0.0 **** 0.06
24034 H 101.87450793153812 111.24796673643948 4.4032522353415615 H 0.0 **** 0.06
24035 H 101.32373896844496 110.01346168008456 3.244537075770152 H 0.0 **** 0.06
24036 C 46.523535494307424 37.85680475271056 22.15840495641462 C 0.0 **** -0.24
24037 H 47.00919962735132 38.501250785620584 21.424706308062955 H 0.0 **** 0.06
24038 H 45.452242291693665 37.82279359880283 21.958482169023277 H 0.0 **** 0.06
24039 H 46.694203024471236 38.2541825405886 23.15892004928609 H 0.0 **** 0.06
24040 H 46.9398756245204 36.852311865952174 22.090472376754526 H 0.0 **** 0.06
24041 C 4.476724094337957 8.282601036682273 95.52557389252394 C 0.0 **** -0.24
24042 H 4.659555086850187 7.225871251989966 95.33084086719154 H 0.0 **** 0.06
24043 H 5.394487462096931 8.74965228175705 95.88408825802208 H 0.0 **** 0.06
24044 H 3.698236821255062 8.381865979172431 96.28249267540775 H 0.0 **** 0.06
24045 H 4.154889788557304 8.771036375830068 94.60629237229722 H 0.0 **** 0.06
24046 C 108.81231016431089 77.36666187684403 32.06902178943537 C 0.0 **** -0.24
24047 H 109.09683595714121 76.31822526290972 32.152013624278396 H 0.0 **** 0.06
24048 H 107.76342791538735 77.48120546711127 32.345709084731794 H 0.0 **** 0.06
24049 H 108.95550038638412 77.70284150602481 31.042543475570568 H 0.0 **** 0.06
24050 H 109.43239640024781 77.96514608390765 32.73762090159292 H 0.0 **** 0.06
24051 C 14.775713834590249 99.21992288067099 109.24374158758175 C 0.0 **** -0.24
24052 H 13.79262720057983 98.98604458258913 109.65147868017361 H 0.0 **** 0.06
24053 H 14.853264047126174 100.29500512735072 109.07888060222237 H 0.0 **** 0.06
24054 H 14.91092445472907 98.69595698562307 108.29784901368154 H 0.0 **** 0.06
24055 H 15.545686275418802 98.90354611970602 109.94782267978678 H 0.0 **** 0.06
24056 C 72.9832893901469 64.41184855590924 90.3599506087522 C 0.0 **** -0.24
24057 H 72.95259061670876 65.5010971765974 90.34546045301332 H 0.0 **** 0.06
24058 H 72.69994295545749 64.0540851502264 91.35076402125966 H 0.0 **** 0.06
24059 H 73.9934960506734 64.07459094797073 90.12616690240057 H 0.0 **** 0.06
24060 H 72.28848307742675 64.01857610326772 89.61891158048584 H 0.0 **** 0.06
24061 C 62.413711061331014 95.90911742459278 115.74843536959169 C 0.0 **** -0.24
24062 H 61.60949387122642 95.19548975850725 115.56604759632427 H 0.0 **** 0.06
24063 H 63.374226592374725 95.3995673915098 115.67354459281563 H 0.0 **** 0.06
24064 H 62.302703663777095 96.33393215646501 116.74602684879493 H 0.0 **** 0.06
24065 H 62.36580359510185 96.70608673846115 115.0058393830457 H 0.0 **** 0.06
24066 C 1.9981056484490267 10.06288427618816 107.60001710811773 C 0.0 **** -0.24
24067 H 1.4817556918917951 11.012769953907014 107.46112545235499 H 0.0 **** 0.06
24068 H 1.690274973761051 9.36428042470915 106.82215601094907 H 0.0 **** 0.06
24069 H 1.7466109221933799 9.652770512503771 108.5781684643874 H 0.0 **** 0.06
24070 H 3.0749720013975335 10.223402819157243 107.53993654876527 H 0.0 **** 0.06
24071 C 38.72710956775258 45.05044247098033 41.54458164000175 C 0.0 **** -0.24
24072 H 39.60568842673567 44.994588737226536 40.90205654312692 H 0.0 **** 0.06
24073 H 38.81247146459252 44.31020075376364 42.34047016588539 H 0.0 **** 0.06
24074 H 37.83291585133691 44.849253396856284 40.95524347116117 H 0.0 **** 0.06
24075 H 38.659365661898065 46.046844683958284 41.98009891776226 H 0.0 **** 0.06
24076 C 41.214225433850174 63.55178866090199 81.70704260553089 C 0.0 **** -0.24
24077 H 41.52706309304682 63.85143345133491 80.7071728526625 H 0.0 **** 0.06
24078 H 40.734957523317235 62.57291349349191 81.65962151015867 H 0.0 **** 0.06
24079 H 40.508567472733375 64.28326409735251 82.10176343644707 H 0.0 **** 0.06
24080 H 42.08550776861421 63.49838496462871 82.35970338635997 H 0.0 **** 0.06
24081 C 91.50556309027291 91.08526172349127 0.9046067913428146 C 0.0 **** -0.24
24082 H 90.93813598973844 90.15683091411958 0.9797384764652861 H 0.0 **** 0.06
24083 H 90.96565469990469 91.79058740560254 0.2716441811228947 H 0.0 **** 0.06
24084 H 92.48259786694979 90.87840090269364 0.46794833358370624 H 0.0 **** 0.06
24085 H 91.63523353690675 91.5132591866313 1.898242874638754 H 0.0 **** 0.06
24086 C 87.83947341443337 5.986707166355814 24.926491618802828 C 0.0 **** -0.24
24087 H 88.23732244146922 6.998076543546816 25.019804007080808 H 0.0 **** 0.06
24088 H 88.37049526782761 5.45969643651658 24.13309227972897 H 0.0 **** 0.06
24089 H 86.77870400065359 6.03455164722827 24.683926121454448 H 0.0 **** 0.06
24090 H 87.97338963650438 5.455437308799262 25.868902761467552 H 0.0 **** 0.06
24091 C 81.55547130599967 84.02053188601587 47.04228828208565 C 0.0 **** -0.24
24092 H 82.62233982909811 84.09085239355113 47.251363565509166 H 0.0 **** 0.06
24093 H 81.1614866693593 85.01358198437575 46.82526617513395 H 0.0 **** 0.06
24094 H 81.04192090497168 83.60819677325114 47.91145096493315 H 0.0 **** 0.06
24095 H 81.39551620468222 83.3691626351889 46.18319432986593 H 0.0 **** 0.06
24096 C 68.30035524559696 114.2230848869005 98.68016314310324 C 0.0 **** -0.24
24097 H 69.1485289386977 114.06510136043704 98.0124531174306 H 0.0 **** 0.06
24098 H 67.41269420325858 113.75093102317254 98.25740593761128 H 0.0 **** 0.06
24099 H 68.12441420942775 115.29206506894025 98.79540645466659 H 0.0 **** 0.06
24100 H 68.51819578604008 113.78245399048745 99.65315435071099 H 0.0 **** 0.06
24101 C 99.24534542251433 20.895241732118166 74.34133295658492 C 0.0 **** -0.24
24102 H 99.99277094407364 21.60357791974792 73.98423788709806 H 0.0 **** 0.06
24103 H 99.7443038656861 20.016425186369673 74.75023996101132 H 0.0 **** 0.06
24104 H 98.60255078423535 20.59645500381751 73.51354343892191 H 0.0 **** 0.06
24105 H 98.6420849595188 21.36431876488112 75.119274199318 H 0.0 **** 0.06
24106 C 114.11398747797722 104.78755592512903 110.63428247949244 C 0.0 **** -0.24
24107 H 114.62304259033168 105.29478367807451 109.81507381822897 H 0.0 **** 0.06
24108 H 114.81663318552677 104.62021727144273 111.45115566532343 H 0.0 **** 0.06
24109 H 113.72731961182242 103.83004521867628 110.2852392479216 H 0.0 **** 0.06
24110 H 113.2873876016996 105.40621429159268 110.98687369392053 H 0.0 **** 0.06
24111 C 100.17629703559601 28.452976509062644 36.79883264758698 C 0.0 **** -0.24
24112 H 100.95578444639364 27.78660424745886 37.16937063471272 H 0.0 **** 0.06
24113 H 100.12203700905911 29.336861776736214 37.43366537876517 H 0.0 **** 0.06
24114 H 99.2179441427187 27.93441704804298 36.814918491666674 H 0.0 **** 0.06
24115 H 100.41093352791796 28.752388664942465 35.777160945618704 H 0.0 **** 0.06
24116 C 74.86726750671579 50.2212353984862 3.2656130804453323 C 0.0 **** -0.24
24117 H 75.34358980336262 49.27107436052247 3.026502300732597 H 0.0 **** 0.06
24118 H 75.02400983133248 50.4506680055454 4.320274433646773 H 0.0 **** 0.06
24119 H 73.79875344406616 50.15317525303205 3.063100273338531 H 0.0 **** 0.06
24120 H 75.30388259137024 51.01070926066507 2.652989771799545 H 0.0 **** 0.06
24121 C 52.07268492745416 58.06420004348568 105.90887563683052 C 0.0 **** -0.24
24122 H 51.495160853035145 58.54551557046228 105.11957133689725 H 0.0 **** 0.06
24123 H 52.28230179403485 57.0321890876854 105.62743447602054 H 0.0 **** 0.06
24124 H 51.5031529277733 58.07952496319499 106.83770574424145 H 0.0 **** 0.06
24125 H 53.01132409713437 58.600888865321345 106.04944101511404 H 0.0 **** 0.06
24126 C 26.714892407563866 33.06216825032544 88.85203737534874 C 0.0 **** -0.24
24127 H 27.662001885197185 33.60088216359159 88.81552780153498 H 0.0 **** 0.06
24128 H 26.391098553386968 32.96592953366343 89.8880024180641 H 0.0 **** 0.06
24129 H 26.844088652778538 32.07148255584366 88.41784379257419 H 0.0 **** 0.06
24130 H 25.962348770398734 33.61227782913477 88.2855953313391 H 0.0 **** 0.06
24131 C 107.48985683692425 85.32166028426064 114.23006693482536 C 0.0 **** -0.24
24132 H 107.11670189987683 85.07698473206051 115.22446234036057 H 0.0 **** 0.06
24133 H 108.47211293383464 84.87013327048388 114.0895987872259 H 0.0 **** 0.06
24134 H 107.56793434436315 86.40352621686526 114.12787639509467 H 0.0 **** 0.06
24135 H 106.80019557512762 84.93431054089115 113.4793269305008 H 0.0 **** 0.06
24136 C 110.68191509543541 74.17806422982062 107.46559010258301 C 0.0 **** -0.24
24137 H 111.62915134548149 74.63652052965244 107.17981863592627 H 0.0 **** 0.06
24138 H 110.81501333463862 73.09953341632016 107.56072273698038 H 0.0 **** 0.06
24139 H 109.93254036120553 74.38613467957734 106.70225391967182 H 0.0 **** 0.06
24140 H 110.35304826272775 74.58879605873861 108.4195271359483 H 0.0 **** 0.06
24141 C 24.80648596184156 18.187431743433876 3.8927422639928295 C 0.0 **** -0.24
24142 H 24.474638078293168 17.53992858430601 4.7042018080998105 H 0.0 **** 0.06
24143 H 25.851686786561487 17.97997755372944 3.665861471596287 H 0.0 **** 0.06
24144 H 24.699155693210315 19.22999047357527 4.194249387664826 H 0.0 **** 0.06
24145 H 24.197903405393618 18.00110173869541 3.0075680455881013 H 0.0 **** 0.06
24146 C 29.050110381554838 18.15428894027974 3.957459775393332 C 0.0 **** -0.24
24147 H 28.25706178172269 18.760529210394992 3.5197993904832714 H 0.0 **** 0.06
24148 H 29.880021912009184 18.079076747466075 3.2537112165633033 H 0.0 **** 0.06
24149 H 28.667711485920364 17.157747950595805 4.176519264499973 H 0.0 **** 0.06
24150 H 29.397728804680106 18.621014633242112 4.8793700492308005 H 0.0 **** 0.06
24151 C 65.80194903902708 44.58115908981891 45.689684419523104 C 0.0 **** -0.24
24152 H 66.83174471975809 44.93401065527357 45.74390234607603 H 0.0 **** 0.06
24153 H 65.78746134959292 43.5582822066588 45.31228277481998 H 0.0 **** 0.06
24154 H 65.23284650024044 45.224625122104385 45.01884336361164 H 0.0 **** 0.06
24155 H 65.35569024200981 44.608668679892816 46.684016005381494 H 0.0 **** 0.06
24156 C 51.90047878584289 18.05944346355747 52.215229869442766 C 0.0 **** -0.24
24157 H 52.257807038709984 19.08600267046691 52.141313605972925 H 0.0 **** 0.06
24158 H 52.57104768568479 17.400419183466425 51.663115429376006 H 0.0 **** 0.06
24159 H 50.897377083863944 17.99307803816683 51.7948127807814 H 0.0 **** 0.06
24160 H 51.875764242554624 17.757936316943642 53.26261548239333 H 0.0 **** 0.06
24161 C 54.13960057358926 17.674556428321893 58.516780675397094 C 0.0 **** -0.24
24162 H 54.666730011571985 18.127236076457734 59.355968731955336 H 0.0 **** 0.06
24163 H 54.71905752442362 17.81647893054182 57.604266215589384 H 0.0 **** 0.06
24164 H 53.16272207442367 18.144117462325283 58.404714828193484 H 0.0 **** 0.06
24165 H 54.010001377417524 16.608170690873862 58.701952168643906 H 0.0 **** 0.06
24166 C 88.81157045517489 18.481802255494657 5.590708315079642 C 0.0 **** -0.24
24167 H 88.64405046853756 19.37144008258339 4.9839097208698195 H 0.0 **** 0.06
24168 H 88.8411760049787 17.60206277681678 4.946997208280655 H 0.0 **** 0.06
24169 H 88.00266051391736 18.37631043506147 6.313444180461744 H 0.0 **** 0.06
24170 H 89.76049181660699 18.57681068610485 6.119604975587492 H 0.0 **** 0.06
24171 C 55.0346404030289 86.59956435735342 87.23076806997014 C 0.0 **** -0.24
24172 H 54.2525415737108 85.95751182476303 86.82506256676555 H 0.0 **** 0.06
24173 H 55.104933671237745 86.44985469757765 88.30826927860628 H 0.0 **** 0.06
24174 H 54.791747772057306 87.64229586469278 87.02291182339152 H 0.0 **** 0.06
24175 H 55.986882246896585 86.34850917173188 86.76542880967213 H 0.0 **** 0.06
24176 C 17.125669680819954 65.03444777953155 50.87771101536333 C 0.0 **** -0.24
24177 H 18.135031858539833 65.17809869115732 51.26320079733523 H 0.0 **** 0.06
24178 H 16.402233712671148 65.24782292455848 51.664609619051646 H 0.0 **** 0.06
24179 H 17.006934104942673 64.00405248649776 50.544043047282685 H 0.0 **** 0.06
24180 H 16.958883972197214 65.70982458165886 50.03809281957567 H 0.0 **** 0.06
24181 C 38.91142564382085 86.94658105412927 65.38689305575792 C 0.0 **** -0.24
24182 H 38.65024018619508 86.03461188069582 65.9239110813611 H 0.0 **** 0.06
24183 H 39.967839134700455 87.16841729816028 65.53835653601027 H 0.0 **** 0.06
24184 H 38.30899093255738 87.7736340910603 65.76209784785487 H 0.0 **** 0.06
24185 H 38.71768571096575 86.80994109023965 64.3230470535093 H 0.0 **** 0.06
24186 C 42.11720954711103 108.73355443624692 10.163044039219567 C 0.0 **** -0.24
24187 H 41.96359888488706 109.63013051074279 10.76368126634452 H 0.0 **** 0.06
24188 H 41.323168667762104 108.01678556020337 10.371189169781324 H 0.0 **** 0.06
24189 H 43.0814885223179 108.29144798208006 10.41295979696785 H 0.0 **** 0.06
24190 H 42.1013978508102 108.99883328761689 9.105553077827143 H 0.0 **** 0.06
24191 C 101.49613412328699 78.9964533846011 79.72147457837619 C 0.0 **** -0.24
24192 H 101.61408821616612 78.09942439492431 80.32984438607158 H 0.0 **** 0.06
24193 H 100.73616326582794 79.63945833981737 80.16620700245682 H 0.0 **** 0.06
24194 H 101.1889322484349 78.71434825895065 78.7144658064042 H 0.0 **** 0.06
24195 H 102.44419271042824 79.53179197507137 79.67520967054534 H 0.0 **** 0.06
24196 C 12.80337885157546 26.174202958287964 83.13065543201844 C 0.0 **** -0.24
24197 H 12.012617578511481 25.988896875935467 82.40292176091577 H 0.0 **** 0.06
24198 H 12.36209941653945 26.518568630950853 84.06577718321637 H 0.0 **** 0.06
24199 H 13.480085266928782 26.937521356166968 82.74518367116798 H 0.0 **** 0.06
24200 H 13.358171660052122 25.2527498061917 83.3073783603582 H 0.0 **** 0.06
24201 C 84.7357086701513 71.185758765793 67.92439871813642 C 0.0 **** -0.24
24202 H 84.02943357965378 71.25421072808814 68.75137921990273 H 0.0 **** 0.06
24203 H 85.56711801064267 70.5399451639708 68.2082795242938 H 0.0 **** 0.06
24204 H 85.11357064186222 72.1795639351439 67.68513619251965 H 0.0 **** 0.06
24205 H 84.23322526197327 70.76825767471294 67.05201335933907 H 0.0 **** 0.06
24206 C 35.74803403677433 75.40452687376 8.963564524662821 C 0.0 **** -0.24
24207 H 35.130159692061 75.91858159799801 9.700256479745136 H 0.0 **** 0.06
24208 H 36.124446884541214 76.12544385257445 8.23722431939363 H 0.0 **** 0.06
24209 H 35.15141722236402 74.64939274989729 8.451400664586703 H 0.0 **** 0.06
24210 H 36.58758049534916 74.92424200867129 9.46700290960181 H 0.0 **** 0.06
24211 C 61.992932378342175 75.45878623713003 76.62710924177648 C 0.0 **** -0.24
24212 H 62.39370492818961 76.36638395710497 76.17552235341691 H 0.0 **** 0.06
24213 H 62.77177695202107 74.69705709543126 76.66670503910996 H 0.0 **** 0.06
24214 H 61.15875658763258 75.09405015017819 76.02760668720427 H 0.0 **** 0.06
24215 H 61.64675240604589 75.67822884818011 77.63714554625884 H 0.0 **** 0.06
24216 C 39.36077125500759 67.3618230853011 112.9415312548283 C 0.0 **** -0.24
24217 H 40.41172133526695 67.44312662133305 113.21884267475201 H 0.0 **** 0.06
24218 H 38.860068120939076 68.30968804163882 113.13510882462415 H 0.0 **** 0.06
24219 H 38.890121242018196 66.57427401375594 113.5304692981988 H 0.0 **** 0.06
24220 H 39.28340862906518 67.11922011705099 111.88150209842416 H 0.0 **** 0.06
24221 C 71.95842849612836 18.177983992754406 36.14704630066973 C 0.0 **** -0.24
24222 H 72.59922933486331 17.74045000512737 36.91294073997125 H 0.0 **** 0.06
24223 H 71.85799171411907 17.480172558047457 35.3150044204267 H 0.0 **** 0.06
24224 H 72.40225568338045 19.10761725819276 35.78969852734565 H 0.0 **** 0.06
24225 H 70.97552399974856 18.384190002968097 36.5694924374032 H 0.0 **** 0.06
24226 C 103.98913307198802 82.79070694828556 113.61019268791937 C 0.0 **** -0.24
24227 H 103.56058850738216 82.44292395571875 114.54968109207954 H 0.0 **** 0.06
24228 H 104.35450561078645 81.93578783391743 113.03947796325185 H 0.0 **** 0.06
24229 H 104.81560042679101 83.47125785048866 113.81651569876651 H 0.0 **** 0.06
24230 H 103.22458163266239 83.31234657419782 113.03331814376081 H 0.0 **** 0.06
24231 C 33.67505148110621 3.8238280568889156 63.00127405989395 C 0.0 **** -0.24
24232 H 34.7375740570551 3.8516203617591867 62.76015103114346 H 0.0 **** 0.06
24233 H 33.31508406479182 4.839755690679244 63.16906133031211 H 0.0 **** 0.06
24234 H 33.5236073319671 3.231159786039699 63.90313099027063 H 0.0 **** 0.06
24235 H 33.126032967619125 3.375279455034148 62.17458508046712 H 0.0 **** 0.06
24236 C 113.28810347265907 20.87259406882963 14.792381839113318 C 0.0 **** -0.24
24237 H 113.38951592293931 21.79994682479856 14.2284036835716 H 0.0 **** 0.06
24238 H 114.22536117908611 20.655314318467152 15.304884990168944 H 0.0 **** 0.06
24239 H 113.04974882977095 20.05718145133939 14.109168610846922 H 0.0 **** 0.06
24240 H 112.48780649681873 20.97830325353656 15.524265872038598 H 0.0 **** 0.06
24241 C 80.00078085335682 67.61556604728406 89.14041024476904 C 0.0 **** -0.24
24242 H 80.9193889988216 67.87919653929228 89.66487189392012 H 0.0 **** 0.06
24243 H 79.69256782536212 66.61105953620736 89.43047638825686 H 0.0 **** 0.06
24244 H 80.17510950566316 67.6468078984544 88.06522775268405 H 0.0 **** 0.06
24245 H 79.21708802491804 68.32690446816488 89.40249078783603 H 0.0 **** 0.06
24246 C 92.25698346350737 16.46592486067248 34.17950441496677 C 0.0 **** -0.24
24247 H 92.27946562304908 16.723474609449994 35.23892015410516 H 0.0 **** 0.06
24248 H 92.53534985819147 17.33930453825744 33.58839093448097 H 0.0 **** 0.06
24249 H 91.25163519634714 16.145599132584117 33.90564994974062 H 0.0 **** 0.06
24250 H 92.96217764951695 15.65730814826141 33.98719440468548 H 0.0 **** 0.06
24251 C 12.704473305778485 69.07980195209277 104.45638056123337 C 0.0 **** -0.24
24252 H 11.894298206394197 69.80588955610705 104.51602961258254 H 0.0 **** 0.06
24253 H 12.869308344190888 68.63872528195051 105.43974254051099 H 0.0 **** 0.06
24254 H 13.615145385514854 69.57698709586543 104.12348085117898 H 0.0 **** 0.06
24255 H 12.438398858917118 68.29564028948863 103.74703446385624 H 0.0 **** 0.06
24256 C 12.584005461321539 72.31960736384201 34.73336079885435 C 0.0 **** -0.24
24257 H 13.084800195002778 73.1898263260816 35.157249390058425 H 0.0 **** 0.06
24258 H 13.274345199656665 71.4751759924037 34.71642635504231 H 0.0 **** 0.06
24259 H 12.260807184253817 72.54560705281921 33.71739526927385 H 0.0 **** 0.06
24260 H 11.716458671743094 72.06741950867254 35.343201615105095 H 0.0 **** 0.06
24261 C 98.9922072682339 11.652247002546261 33.567837249753325 C 0.0 **** -0.24
24262 H 98.48437538632771 12.168962194250724 34.38277725283771 H 0.0 **** 0.06
24263 H 100.07077932638808 11.746217990385247 33.695292147470525 H 0.0 **** 0.06
24264 H 98.69857620794076 12.097132908196187 32.61682551293487 H 0.0 **** 0.06
24265 H 98.71489005275993 10.598922502078437 33.57815864491883 H 0.0 **** 0.06
24266 C 49.48657058042383 106.01844921019821 84.86747066957082 C 0.0 **** -0.24
24267 H 50.19872033570928 105.69881982860574 84.10677707662867 H 0.0 **** 0.06
24268 H 48.474019987234016 105.78449250831386 84.5364591774267 H 0.0 **** 0.06
24269 H 49.57869234230367 107.09323823892225 85.02306333111537 H 0.0 **** 0.06
24270 H 49.69440725664097 105.49568410217799 85.80126697690622 H 0.0 **** 0.06
24271 C 54.98183941984115 22.794800638377794 99.88344160968893 C 0.0 **** -0.24
24272 H 55.49888814077795 22.764272355051645 98.92424995939393 H 0.0 **** 0.06
24273 H 55.597014982112285 23.32730004317655 100.61063039765119 H 0.0 **** 0.06
24274 H 54.80485537323359 21.777828625814166 100.23324659469034 H 0.0 **** 0.06
24275 H 54.0297441042345 23.31002164528182 99.76666985565362 H 0.0 **** 0.06
24276 C 46.167126529212766 51.29759251205107 116.57716141782772 C 0.0 **** -0.24
24277 H 45.10306900927702 51.08816053111022 116.47079524005413 H 0.0 **** 0.06
24278 H 46.46063999214198 51.16899936021156 117.61889583778569 H 0.0 **** 0.06
24279 H 46.36855425117702 52.323107270330894 116.26658074530079 H 0.0 **** 0.06
24280 H 46.736475247628846 50.610055299490114 115.95097962812326 H 0.0 **** 0.06
24281 C 37.87028475422841 98.62384048344077 111.50975878417242 C 0.0 **** -0.24
24282 H 37.920337400044446 97.54186536306716 111.62758270441901 H 0.0 **** 0.06
24283 H 38.76642470310719 99.07713745461879 111.93607221357439 H 0.0 **** 0.06
24284 H 36.98893818640221 99.00476796242216 112.02424528514665 H 0.0 **** 0.06
24285 H 37.80807377209794 98.87070649616152 110.45000602133189 H 0.0 **** 0.06
24286 C 85.43216915587169 116.33779775380731 108.2317861870682 C 0.0 **** -0.24
24287 H 85.80759140635803 117.3615550261971 108.23326935198028 H 0.0 **** 0.06
24288 H 84.34464256963042 116.34936866458915 108.29912088608882 H 0.0 **** 0.06
24289 H 85.84423480615897 115.79963223089513 109.08558636981361 H 0.0 **** 0.06
24290 H 85.73487828071734 115.84211139244864 107.3099987278813 H 0.0 **** 0.06
24291 C 6.5696617955699725 102.50177374178242 106.2844543997989 C 0.0 **** -0.24
24292 H 6.143522926264774 101.51429025423482 106.46229141839305 H 0.0 **** 0.06
24293 H 5.832909793549177 103.26564239742888 106.53324976803935 H 0.0 **** 0.06
24294 H 6.847335836168833 102.59288149708811 105.2343365625106 H 0.0 **** 0.06
24295 H 7.45436698866788 102.63314849092262 106.907264441065 H 0.0 **** 0.06
24296 C 11.483318641507338 60.43629638306834 56.67088365614621 C 0.0 **** -0.24
24297 H 12.174026318150737 60.442065789341484 55.82712916661189 H 0.0 **** 0.06
24298 H 11.037736024858347 59.44537657690586 56.76836772212827 H 0.0 **** 0.06
24299 H 10.698026070575125 61.17291262830736 56.50312188564637 H 0.0 **** 0.06
24300 H 12.024717600344104 60.68275979184273 57.58447324892298 H 0.0 **** 0.06
24301 C 113.80881977299101 54.21104918962828 75.14458557157556 C 0.0 **** -0.24
24302 H 113.48443991371944 55.072167343634916 74.56101453858591 H 0.0 **** 0.06
24303 H 114.89370973219825 54.234771829738506 75.25362710318598 H 0.0 **** 0.06
24304 H 113.51475062786447 53.294850525271215 74.63363621536149 H 0.0 **** 0.06
24305 H 113.34416173317615 54.24407794746091 76.12989210077001 H 0.0 **** 0.06
24306 C 82.05951119922389 48.103413388247645 90.31661572595533 C 0.0 **** -0.24
24307 H 81.47196636656375 48.029179246857495 91.23130216658865 H 0.0 **** 0.06
24308 H 82.64383824333837 47.191980809904024 90.18512578948224 H 0.0 **** 0.06
24309 H 82.73192481873892 48.95916272857475 90.3870290180671 H 0.0 **** 0.06
24310 H 81.39236867339162 48.23394260442993 89.46510595735498 H 0.0 **** 0.06
24311 C 59.86196511857369 96.8528790167066 71.3995035675191 C 0.0 **** -0.24
24312 H 59.24838309508425 96.60111104843469 70.53472617819145 H 0.0 **** 0.06
24313 H 60.86491265420841 97.12237337480974 71.06866978751157 H 0.0 **** 0.06
24314 H 59.918126547959815 95.99226673617784 72.0675817663635 H 0.0 **** 0.06
24315 H 59.41465026372302 97.6940187076728 71.9292170863379 H 0.0 **** 0.06
24316 C 45.99609934705113 9.160092626731327 58.16809201711729 C 0.0 **** -0.24
24317 H 46.77335501613206 9.917092228664487 58.06062002557783 H 0.0 **** 0.06
24318 H 46.40121322022755 8.18350644749377 57.90064253971866 H 0.0 **** 0.06
24319 H 45.1608125267276 9.400178266928819 57.510175013157635 H 0.0 **** 0.06
24320 H 45.64975888215369 9.139302931397452 59.2015343487123 H 0.0 **** 0.06
24321 C 97.84283897572595 53.312681581699394 43.9626164275129 C 0.0 **** -0.24
24322 H 96.98118527230034 53.73645665407014 43.446396927076194 H 0.0 **** 0.06
24323 H 97.52577727477137 52.4475747187297 44.54560013196789 H 0.0 **** 0.06
24324 H 98.2724201168844 54.06187723003188 44.6276847636359 H 0.0 **** 0.06
24325 H 98.58995103769044 53.005690654975126 43.231169871539635 H 0.0 **** 0.06
24326 C 9.317302377713247 74.73759816398575 113.24202748053341 C 0.0 **** -0.24
24327 H 9.039084588664736 75.2728384005215 114.14938554828996 H 0.0 **** 0.06
24328 H 9.832797973036747 73.81445596864839 113.50827508150991 H 0.0 **** 0.06
24329 H 9.977685684091512 75.36258850281268 112.63966047014583 H 0.0 **** 0.06
24330 H 8.420095730896435 74.50120540216739 112.67023237437951 H 0.0 **** 0.06
24331 C 54.81922020274457 9.051868540383015 12.728672697082885 C 0.0 **** -0.24
24332 H 55.241847503508936 8.513750929465147 11.88013538358166 H 0.0 **** 0.06
24333 H 53.817578588583004 9.398883770107187 12.475278811102328 H 0.0 **** 0.06
24334 H 55.45119759370232 9.907286037064182 12.96642135264267 H 0.0 **** 0.06
24335 H 54.76708860529415 8.386630764542385 13.590124332521128 H 0.0 **** 0.06
24336 C 17.61902899410029 83.27200053620598 38.203074810081574 C 0.0 **** -0.24
24337 H 17.19007679864501 84.25711540268193 38.01862779712843 H 0.0 **** 0.06
24338 H 18.620333602360574 83.38285793433732 38.617250603241985 H 0.0 **** 0.06
24339 H 17.672332815617324 82.71883424187908 37.265183696852716 H 0.0 **** 0.06
24340 H 16.990298393089063 82.72871929877854 38.90915791168325 H 0.0 **** 0.06
24341 C 45.96812022293693 31.939535944939024 67.9117903461601 C 0.0 **** -0.24
24342 H 46.77366385030308 32.33147172896952 68.53402170409993 H 0.0 **** 0.06
24343 H 45.97472648555254 30.85046812658487 67.95240548900671 H 0.0 **** 0.06
24344 H 46.11441172866387 32.265743211377554 66.88201192880018 H 0.0 **** 0.06
24345 H 45.01282532088521 32.312211347554154 68.27891096981256 H 0.0 **** 0.06
24346 C 85.33686535923803 31.69441226180203 68.26431055349178 C 0.0 **** -0.24
24347 H 86.22852221073208 31.91664066246176 67.6778963867406 H 0.0 **** 0.06
24348 H 85.5877898931571 31.704661338383744 69.32571947102556 H 0.0 **** 0.06
24349 H 84.95834071646402 30.70978602606175 67.98974682859864 H 0.0 **** 0.06
24350 H 84.57331050720597 32.445272617289504 68.06417657911084 H 0.0 **** 0.06
24351 C 112.72417419353214 39.239848702425036 63.070583126323896 C 0.0 **** -0.24
24352 H 112.07001994216725 39.91266328950249 62.516906634941506 H 0.0 **** 0.06
24353 H 112.12696688539202 38.62463237987092 63.74301396060753 H 0.0 **** 0.06
24354 H 113.43871345418098 39.82406593092995 63.65099235939107 H 0.0 **** 0.06
24355 H 113.26149056786105 38.598834463883094 62.371757098463235 H 0.0 **** 0.06
24356 C 77.69507725821603 61.43912777578811 68.72789724123885 C 0.0 **** -0.24
24357 H 78.3403791732209 61.83525435508034 69.51083851230291 H 0.0 **** 0.06
24358 H 76.71104332602997 61.904827073825686 68.79799336125103 H 0.0 **** 0.06
24359 H 77.59538091362921 60.36008066848916 68.85002835101568 H 0.0 **** 0.06
24360 H 78.13122898463467 61.655458046794195 67.75288194584394 H 0.0 **** 0.06
24361 C 107.2307155028164 4.676492015491533 99.00767945790895 C 0.0 **** -0.24
24362 H 108.2042414539946 5.152845066237262 98.88747539217019 H 0.0 **** 0.06
24363 H 107.15095234360663 3.8354968910446416 98.31837542962913 H 0.0 **** 0.06
24364 H 106.4444539712745 5.399420255301493 98.79165516681016 H 0.0 **** 0.06
24365 H 107.12468390676142 4.319724738392409 100.03197353324634 H 0.0 **** 0.06
24366 C 113.2134070941143 1.0018636216181562 73.08984896382964 C 0.0 **** -0.24
24367 H 113.73727344235238 0.256892869331665 72.49148071975628 H 0.0 **** 0.06
24368 H 113.91620439553105 1.4786130939875477 73.77299085762817 H 0.0 **** 0.06
24369 H 112.4216611486037 0.5175954312038016 73.66108675919122 H 0.0 **** 0.06
24370 H 112.77928204068508 1.7547627722848347 72.43155624384363 H 0.0 **** 0.06
24371 C 68.64620826474888 51.634342016260746 76.49747079210832 C 0.0 **** -0.24
24372 H 69.47177202665756 51.62709254236836 77.20984846072957 H 0.0 **** 0.06
24373 H 68.8297442482837 52.393948671037975 75.73720289693236 H 0.0 **** 0.06
24374 H 67.7175903985727 51.860032294768416 77.02111922918596 H 0.0 **** 0.06
24375 H 68.56782226478228 50.65617768614942 76.02248324457287 H 0.0 **** 0.06
24376 C 107.32761513744498 59.947642883012804 92.17504892323802 C 0.0 **** -0.24
24377 H 106.71969816167285 59.59816563048486 91.34025997209719 H 0.0 **** 0.06
24378 H 108.01938435084281 60.71428903702582 91.82548917541973 H 0.0 **** 0.06
24379 H 107.89132342416355 59.111131686277474 92.5892240142573 H 0.0 **** 0.06
24380 H 106.67991212927285 60.36615669823186 92.94576417427692 H 0.0 **** 0.06
24381 C 1.7283269158685126 34.87769339917294 48.18018462153776 C 0.0 **** -0.24
24382 H 2.245796666634442 34.799640580678144 49.13731621548595 H 0.0 **** 0.06
24383 H 0.6571649002408613 34.75342710781435 48.335531730409514 H 0.0 **** 0.06
24384 H 2.0909356101831182 34.10087060627494 47.507669791220565 H 0.0 **** 0.06
24385 H 1.9215051426908953 35.856922002475606 47.74236677339485 H 0.0 **** 0.06
24386 C 116.27636317836682 40.65040184888875 67.77222080456508 C 0.0 **** -0.24
24387 H 115.80793369834596 40.35428973677534 68.71043685716924 H 0.0 **** 0.06
24388 H 115.52380505995505 41.08080688604349 67.11072794038779 H 0.0 **** 0.06
24389 H 116.72067931990036 39.77597380357696 67.29661936103719 H 0.0 **** 0.06
24390 H 117.05225144993297 41.38992352561888 67.97120087227466 H 0.0 **** 0.06
24391 C 55.29562152645343 83.97921049151537 82.47276509900493 C 0.0 **** -0.24
24392 H 56.192031091290886 83.3956849210723 82.26583348080695 H 0.0 **** 0.06
24393 H 55.37703111278975 84.43132783565477 83.46227683300947 H 0.0 **** 0.06
24394 H 54.42236080939793 83.32730576231373 82.44192789236388 H 0.0 **** 0.06
24395 H 55.19059998993583 84.7631949984347 81.72217746944426 H 0.0 **** 0.06
24396 C 60.098557963435816 90.99587199672456 105.88953869756722 C 0.0 **** -0.24
24397 H 60.414970511700666 90.67134618768364 106.88065324337597 H 0.0 **** 0.06
24398 H 59.204512892647124 91.61176476483556 105.9774157359958 H 0.0 **** 0.06
24399 H 59.880711194030575 90.1220705828375 105.27486245704151 H 0.0 **** 0.06
24400 H 60.896598234274855 91.5755883601091 105.42545611700783 H 0.0 **** 0.06
24401 C 82.11256814118241 103.00110519908301 110.02993743228929 C 0.0 **** -0.24
24402 H 81.82828321705352 103.36070915827412 111.01849648358375 H 0.0 **** 0.06
24403 H 82.65701796906029 103.78400155153258 109.50056918856637 H 0.0 **** 0.06
24404 H 81.21601369643969 102.73704052807793 109.46854543274158 H 0.0 **** 0.06
24405 H 82.7486763906266 102.12171264960045 110.13314127905261 H 0.0 **** 0.06
24406 C 87.27227209853368 47.01432193314733 46.19632501360249 C 0.0 **** -0.24
24407 H 87.06857973996728 46.95945054065999 47.2661444243415 H 0.0 **** 0.06
24408 H 86.53587235599772 46.417491212875774 45.65540482632878 H 0.0 **** 0.06
24409 H 88.27117838936604 46.627092218053065 45.99557309503701 H 0.0 **** 0.06
24410 H 87.21089931981257 48.05169423038669 45.86802935409748 H 0.0 **** 0.06
24411 C 105.9640682468613 10.573588952680922 46.34055268703759 C 0.0 **** -0.24
24412 H 106.34673960091422 10.42753121086669 47.35094507054811 H 0.0 **** 0.06
24413 H 105.50059644228838 9.650799257122259 45.990788390614284 H 0.0 **** 0.06
24414 H 106.78540199600968 10.8425344460276 45.6764193020195 H 0.0 **** 0.06
24415 H 105.2235349482327 11.373490896706969 46.34405798496857 H 0.0 **** 0.06
24416 C 56.59491165811537 43.16460899040948 92.31429509119786 C 0.0 **** -0.24
24417 H 56.28877950566383 44.10547162973401 92.77239508534049 H 0.0 **** 0.06
24418 H 55.71119999342863 42.620045850544955 91.97971666511731 H 0.0 **** 0.06
24419 H 57.137924736259954 42.56532618076585 93.04449288868173 H 0.0 **** 0.06
24420 H 57.23986228445556 43.370693419427 91.45965428596952 H 0.0 **** 0.06
24421 C 92.78547110904412 29.755599070437512 104.50336555607493 C 0.0 **** -0.24
24422 H 91.80785852252404 29.892210012592926 104.96662045155628 H 0.0 **** 0.06
24423 H 92.97002911281027 30.567423136224107 103.80004914388095 H 0.0 **** 0.06
24424 H 92.8053669371476 28.803132221261876 103.97398289014001 H 0.0 **** 0.06
24425 H 93.55615524919699 29.758474736995794 105.27405073254045 H 0.0 **** 0.06
24426 C 4.4782301837341265 58.75483459376772 99.57989573650298 C 0.0 **** -0.24
24427 H 5.512602283406949 58.505392927241395 99.82018781561467 H 0.0 **** 0.06
24428 H 4.126333509426843 59.532743056522996 100.2583573698972 H 0.0 **** 0.06
24429 H 3.855143050555938 57.86687402990548 99.6900931523104 H 0.0 **** 0.06
24430 H 4.4211066562055805 59.1141670909413 98.55263140909005 H 0.0 **** 0.06
24431 C 6.82106432262448 42.719240124362386 4.372867744369216 C 0.0 **** -0.24
24432 H 6.392366462900597 42.02620078549842 5.09773095005076 H 0.0 **** 0.06
24433 H 6.754738284534014 43.736147572433595 4.76007193189821 H 0.0 **** 0.06
24434 H 6.270951981722334 42.650086945520115 3.434289442353702 H 0.0 **** 0.06
24435 H 7.866204090886185 42.462606932693234 4.200902007830933 H 0.0 **** 0.06
24436 C 1.0057745524320438 82.28736434130207 92.98032347410486 C 0.0 **** -0.24
24437 H 0.5410233065423995 82.73890511235606 92.10342198616613 H 0.0 **** 0.06
24438 H 0.5859626111216159 81.29469750949133 93.14198188101082 H 0.0 **** 0.06
24439 H 0.8133608586623353 82.91019900709713 93.85426966874118 H 0.0 **** 0.06
24440 H 2.0807280423353802 82.20669238070042 92.8207084365988 H 0.0 **** 0.06
24441 C 85.93688290549585 103.99306775615509 38.071769521324384 C 0.0 **** -0.24
24442 H 86.35184063366893 103.06333747774067 38.46130086961784 H 0.0 **** 0.06
24443 H 85.45615954893609 104.54293526176932 38.882023712234584 H 0.0 **** 0.06
24444 H 85.20267724626757 103.76807726123923 37.29920224162149 H 0.0 **** 0.06
24445 H 86.7382086783229 104.59863719446608 37.64749287839285 H 0.0 **** 0.06
24446 C 54.826623528251645 98.45008021294976 55.715693781316304 C 0.0 **** -0.24
24447 H 54.75988950948917 99.53846609252784 55.70954808343822 H 0.0 **** 0.06
24448 H 54.45101374435856 98.06936311980172 56.66542782087046 H 0.0 **** 0.06
24449 H 55.86554152226333 98.14905184073211 55.58760324345528 H 0.0 **** 0.06
24450 H 54.227560552752436 98.04594300398375 54.898954716173336 H 0.0 **** 0.06
24451 C 91.38321676145895 22.028285214437233 92.77021161616602 C 0.0 **** -0.24
24452 H 90.32567544846228 22.28798098716122 92.82023616894878 H 0.0 **** 0.06
24453 H 91.50908833222624 21.129726758614595 92.16627204293107 H 0.0 **** 0.06
24454 H 91.76041324690883 21.846033865859766 93.77635335858292 H 0.0 **** 0.06
24455 H 91.9379055689987 22.850302360817892 92.31761343794423 H 0.0 **** 0.06
24456 C 114.77061770122206 40.431982950993586 97.40776601029012 C 0.0 **** -0.24
24457 H 114.06082338828381 40.059016198145855 96.66945794819554 H 0.0 **** 0.06
24458 H 115.78273170292738 40.356871536277566 97.00877033020237 H 0.0 **** 0.06
24459 H 114.69313393639568 39.83730533924552 98.31822127932827 H 0.0 **** 0.06
24460 H 114.54525799249032 41.47537137092078 97.63404398067877 H 0.0 **** 0.06
24461 C 95.63903365304697 13.248139083205842 34.96451269255633 C 0.0 **** -0.24
24462 H 95.0683295067683 12.83609256502288 34.132475800161856 H 0.0 **** 0.06
24463 H 96.65975483183473 13.454283771657174 34.63831679623158 H 0.0 **** 0.06
24464 H 95.65792415481116 12.529039347200126 35.78406729329962 H 0.0 **** 0.06
24465 H 95.17236925650212 14.172684793178831 35.30406316314377 H 0.0 **** 0.06
24466 C 30.376367195080576 73.72927972353605 95.8531062552936 C 0.0 **** -0.24
24467 H 30.75849318848941 74.08001776435827 94.89362066030563 H 0.0 **** 0.06
24468 H 31.07689047417003 73.99869616789383 96.64279784840664 H 0.0 **** 0.06
24469 H 30.259515846018616 72.64669731007689 95.8230736909315 H 0.0 **** 0.06
24470 H 29.409499737865076 74.19384694989171 96.04957417774412 H 0.0 **** 0.06
24471 C 31.03043096027406 22.57353092375172 26.578952348205206 C 0.0 **** -0.24
24472 H 31.309348400542405 21.541912467478795 26.364084032429062 H 0.0 **** 0.06
24473 H 31.521824643993142 22.898490273532445 27.49607755157379 H 0.0 **** 0.06
24474 H 29.94965283821466 22.638681890667613 26.702600798909472 H 0.0 **** 0.06
24475 H 31.341147687120866 23.212868208362124 25.752572336856986 H 0.0 **** 0.06
24476 C 106.59954376474201 98.05120843074374 33.977827261288894 C 0.0 **** -0.24
24477 H 106.41637846851174 98.84770181488881 34.69953064180015 H 0.0 **** 0.06
24478 H 105.9203076823351 97.22040342559359 34.17339682502302 H 0.0 **** 0.06
24479 H 107.62987728273393 97.70768858896696 34.069946335964005 H 0.0 **** 0.06
24480 H 106.43039795634246 98.42923679327447 32.97030300257478 H 0.0 **** 0.06
24481 C 65.45790606773028 21.77056877324071 12.856282714851261 C 0.0 **** -0.24
24482 H 65.71573707177365 21.51387248429438 13.883467273544824 H 0.0 **** 0.06
24483 H 66.36653032818089 22.00110742153811 12.300160565200628 H 0.0 **** 0.06
24484 H 64.79889610665191 22.638595693370405 12.853816308235707 H 0.0 **** 0.06
24485 H 64.94949850994314 20.926750926249042 12.388816977648958 H 0.0 **** 0.06
24486 C 14.339262074289593 52.82597424558958 62.88448463520544 C 0.0 **** -0.24
24487 H 14.491749720826476 51.76093223378558 62.70634967098587 H 0.0 **** 0.06
24488 H 15.282453059025045 53.28193418648479 63.1868028623642 H 0.0 **** 0.06
24489 H 13.60064694048836 52.95975602824649 63.67488016165552 H 0.0 **** 0.06
24490 H 13.982255260528092 53.29833770258128 61.969295656046 H 0.0 **** 0.06
24491 C 95.2836538311484 114.5027683672191 44.68106055876203 C 0.0 **** -0.24
24492 H 95.66092808371388 115.42776774322382 45.11611366750449 H 0.0 **** 0.06
24493 H 95.91229427298936 113.66935805214138 44.99738556054669 H 0.0 **** 0.06
24494 H 95.3003485565905 114.57924681736122 43.594048472329064 H 0.0 **** 0.06
24495 H 94.26026879234809 114.33398120747803 45.017632957350116 H 0.0 **** 0.06
24496 C 39.434234395731444 74.34244680305753 1.264944977272478 C 0.0 **** -0.24
24497 H 38.35859041822004 74.27915024232274 1.1042699305990435 H 0.0 **** 0.06
24498 H 39.63137059880065 74.64971553283632 2.2920590013207836 H 0.0 **** 0.06
24499 H 39.86171237014647 75.07380865634465 0.5784798067717265 H 0.0 **** 0.06
24500 H 39.88634577434271 73.36696703024111 1.083626135561774 H 0.0 **** 0.06
24501 C 68.58121210414185 39.19933418025215 5.9260544099390415 C 0.0 **** -0.24
24502 H 68.30589257147338 40.25142463676673 6.000194795106438 H 0.0 **** 0.06
24503 H 68.5311565130284 38.74074363705279 6.914146094326895 H 0.0 **** 0.06
24504 H 69.59515512143423 39.11561320512982 5.536676392892275 H 0.0 **** 0.06
24505 H 67.89003989269233 38.69045446355247 5.254387560541545 H 0.0 **** 0.06
24506 C 88.51862882655183 82.90191168027033 57.88041824270647 C 0.0 **** -0.24
24507 H 87.77609385777714 82.44093948438919 58.53201661539467 H 0.0 **** 0.06
24508 H 88.04503812011899 83.20529631033935 56.94642755368497 H 0.0 **** 0.06
24509 H 89.31233565656089 82.18482353095854 57.67056108519674 H 0.0 **** 0.06
24510 H 88.94199031382323 83.77758559634873 58.374432740919644 H 0.0 **** 0.06
24511 C 37.04570432141733 69.26295281219595 78.54730001202319 C 0.0 **** -0.24
24512 H 37.5597260264029 68.93443161752043 79.45164153246782 H 0.0 **** 0.06
24513 H 37.3220102835368 70.29415388768024 78.32803463669984 H 0.0 **** 0.06
24514 H 35.96856661466839 69.19884064558269 78.6984453148724 H 0.0 **** 0.06
24515 H 37.33412260502402 68.62291588693114 77.71357968554935 H 0.0 **** 0.06
24516 C 59.90907853846676 115.89820007961578 65.57178937422952 C 0.0 **** -0.24
24517 H 59.91779793879388 116.9882500921083 65.58878746142133 H 0.0 **** 0.06
24518 H 60.36591453553186 115.54607321764806 64.64583763419296 H 0.0 **** 0.06
24519 H 58.880530452357874 115.54224799656237 65.62796672773473 H 0.0 **** 0.06
24520 H 60.47269979136891 115.5164004409356 66.42331043043163 H 0.0 **** 0.06
24521 C 104.32851873806277 78.97049715275963 40.44126626423119 C 0.0 **** -0.24
24522 H 104.92851569309173 79.57977635698651 39.76521857393479 H 0.0 **** 0.06
24523 H 103.8352669303404 79.61425354981074 41.16988025632426 H 0.0 **** 0.06
24524 H 104.97432112656784 78.26188673767172 40.96083587482116 H 0.0 **** 0.06
24525 H 103.5776654885232 78.42501033840554 39.86907963824649 H 0.0 **** 0.06
24526 C 47.02767926424322 61.72976505146954 98.5434278802868 C 0.0 **** -0.24
24527 H 47.58693126030374 62.289981877406944 99.29251416159173 H 0.0 **** 0.06
24528 H 47.723948480386326 61.19492616791592 97.8958333809255 H 0.0 **** 0.06
24529 H 46.430792465995324 62.418458270403335 97.94637871659128 H 0.0 **** 0.06
24530 H 46.371438783322375 61.01556081766188 99.03948698371113 H 0.0 **** 0.06
24531 C 109.5851236518491 18.278257174211717 17.24770412817984 C 0.0 **** -0.24
24532 H 110.20280774870233 17.562206954587793 17.78902137097579 H 0.0 **** 0.06
24533 H 109.4690008494658 19.182435682419396 17.8444751316366 H 0.0 **** 0.06
24534 H 108.605001149878 17.840104055301026 17.056401343636367 H 0.0 **** 0.06
24535 H 110.0631786331439 18.52636281794844 16.299888740206786 H 0.0 **** 0.06
24536 C 64.73384480682236 93.27854813526224 105.92415185332311 C 0.0 **** -0.24
24537 H 65.24682763745696 93.1706420735143 104.96880331650499 H 0.0 **** 0.06
24538 H 65.09140541797561 94.17581296898729 106.42880338064126 H 0.0 **** 0.06
24539 H 64.93668028454172 92.40539513904017 106.54519907001315 H 0.0 **** 0.06
24540 H 63.66085497200126 93.3603321535476 105.75245701480577 H 0.0 **** 0.06
24541 C 111.41794042675507 105.29837700655742 9.507489067725928 C 0.0 **** -0.24
24542 H 111.7741561725808 106.3081932490025 9.71457249399484 H 0.0 **** 0.06
24543 H 110.33205139434645 105.31057979116804 9.406246038944936 H 0.0 **** 0.06
24544 H 111.69962266961528 104.63837989008732 10.327738947444622 H 0.0 **** 0.06
24545 H 111.86597787512795 104.938588504633 8.581298677538456 H 0.0 **** 0.06
24546 C 113.50088078128421 20.891960456772722 93.40679575535137 C 0.0 **** -0.24
24547 H 114.06258745799363 20.791910965355555 94.3356739430657 H 0.0 **** 0.06
24548 H 113.63103847047566 21.898525868712284 93.01004396984939 H 0.0 **** 0.06
24549 H 112.44365874781285 20.71161378151504 93.60157927280761 H 0.0 **** 0.06
24550 H 113.86608783482163 20.1642141728627 92.68146398484367 H 0.0 **** 0.06
24551 C 109.26261298470925 15.168655311817645 97.18499700773725 C 0.0 **** -0.24
24552 H 108.47955314340004 15.137093454795277 97.94210205847429 H 0.0 **** 0.06
24553 H 108.8781482918585 15.65103411056515 96.28589322871042 H 0.0 **** 0.06
24554 H 109.57899811801335 14.154124965749617 96.94622831269461 H 0.0 **** 0.06
24555 H 110.11239518993548 15.735222547543657 97.56588379169338 H 0.0 **** 0.06
24556 C 111.6115734737237 41.05019534126009 31.508629843372745 C 0.0 **** -0.24
24557 H 110.52844269647821 41.040155729940295 31.624201489486126 H 0.0 **** 0.06
24558 H 111.98220369182374 40.025078658526695 31.467653040012465 H 0.0 **** 0.06
24559 H 112.06225928149067 41.5651945482484 32.357316543087705 H 0.0 **** 0.06
24560 H 111.87414371167938 41.568509194993965 30.586773811065285 H 0.0 **** 0.06
24561 C 97.87395921795226 73.59960469103697 69.7058100002823 C 0.0 **** -0.24
24562 H 98.31558588037527 73.22008024352007 70.62687732218345 H 0.0 **** 0.06
24563 H 98.47703306980495 73.27862113980439 68.855159317616 H 0.0 **** 0.06
24564 H 97.84335767601831 74.68855855829216 69.73989775825245 H 0.0 **** 0.06
24565 H 96.86110996972653 73.21049831430477 69.60126049634826 H 0.0 **** 0.06
24566 C 51.66498105250432 104.42410091692008 54.847915506983526 C 0.0 **** -0.24
24567 H 51.06061062824949 105.29775052261485 55.09178169152804 H 0.0 **** 0.06
24568 H 52.519960538632006 104.73094892280116 54.24531335392035 H 0.0 **** 0.06
24569 H 51.061818029943794 103.71071688933009 54.28706212608418 H 0.0 **** 0.06
24570 H 52.017453013854634 103.95876552003634 55.768858228851315 H 0.0 **** 0.06
24571 C 15.03343944976244 88.33803608725651 5.723139651724011 C 0.0 **** -0.24
24572 H 15.450465177778625 87.36627836988961 5.458837845410585 H 0.0 **** 0.06
24573 H 15.158321031027882 89.02543738829053 4.886184433846722 H 0.0 **** 0.06
24574 H 15.55145407353723 88.7314031631422 6.597163160612979 H 0.0 **** 0.06
24575 H 13.972479223412932 88.22782991295179 5.948794249116531 H 0.0 **** 0.06
24576 C 17.712085376554 7.512918019452002 24.534860193903597 C 0.0 **** -0.24
24577 H 18.270528722977645 8.438438879109597 24.392378019658935 H 0.0 **** 0.06
24578 H 17.50385495783695 7.0613654996805195 23.56424623750351 H 0.0 **** 0.06
24579 H 16.773291937918998 7.729976321008451 25.043878372683963 H 0.0 **** 0.06
24580 H 18.301271361639806 6.8227379516296764 25.137980633235287 H 0.0 **** 0.06
24581 C 52.17423270337471 55.64532092916772 10.95553983524782 C 0.0 **** -0.24
24582 H 52.77174084639228 56.51250879894432 11.238069880444435 H 0.0 **** 0.06
24583 H 52.03445563425231 55.637602833353746 9.874546879872973 H 0.0 **** 0.06
24584 H 51.20285978675122 55.6973400139151 11.448350850572467 H 0.0 **** 0.06
24585 H 52.68910451104503 54.734945611677915 11.262690897350648 H 0.0 **** 0.06
24586 C 41.766795536723066 24.470142415764542 9.303879703260293 C 0.0 **** -0.24
24587 H 41.696991531137904 24.911188787208033 8.308757823867865 H 0.0 **** 0.06
24588 H 41.14007856206261 23.580145085341982 9.351001800130064 H 0.0 **** 0.06
24589 H 41.427999546647975 25.194144557590988 10.045267031775154 H 0.0 **** 0.06
24590 H 42.802232575869766 24.198276652184887 9.50913591829044 H 0.0 **** 0.06
24591 C 78.56474547860219 21.390555365785417 51.1574455669309 C 0.0 **** -0.24
24592 H 77.51616938475749 21.580165006612845 51.38986631672563 H 0.0 **** 0.06
24593 H 79.01928729825045 20.823848472517 51.96999279049466 H 0.0 **** 0.06
24594 H 79.08812093996528 22.339449732209687 51.039854853680566 H 0.0 **** 0.06
24595 H 78.6338913526063 20.819423987488904 50.232363579463055 H 0.0 **** 0.06
24596 C 30.687720150195894 46.35598680713011 116.69865741946612 C 0.0 **** -0.24
24597 H 30.650161514198544 45.273466437411486 116.5760320769365 H 0.0 **** 0.06
24598 H 29.77242931268119 46.797295822124795 116.30523149956991 H 0.0 **** 0.06
24599 H 31.545543291921476 46.752664141601485 116.1560613566945 H 0.0 **** 0.06
24600 H 30.782335351921297 46.598333753167836 117.75752376224698 H 0.0 **** 0.06
24601 C 27.205525131137463 29.741207063999994 38.41713265271934 C 0.0 **** -0.24
24602 H 27.768509875332718 28.901566426928333 38.008616084977064 H 0.0 **** 0.06
24603 H 27.37035294139684 29.799191461769453 39.49282570436355 H 0.0 **** 0.06
24604 H 26.14354815261587 29.5960317208717 38.21831867115193 H 0.0 **** 0.06
24605 H 27.540877528703973 30.66554734654904 37.94722654280364 H 0.0 **** 0.06
24606 C 6.776734046271008 94.69581193594351 23.828073835323224 C 0.0 **** -0.24
24607 H 5.729659552007163 94.41540235476319 23.708979343625643 H 0.0 **** 0.06
24608 H 7.260527087773275 94.71580050211153 22.8514681206334 H 0.0 **** 0.06
24609 H 7.276921952080173 93.9685921788797 24.46696459104649 H 0.0 **** 0.06
24610 H 6.837663800815346 95.68387200779881 24.28526075169519 H 0.0 **** 0.06
24611 C 25.385989525613326 16.149479671109646 30.0601496718715 C 0.0 **** -0.24
24612 H 25.64750377230544 15.131904439781948 29.769521172033308 H 0.0 **** 0.06
24613 H 26.136001935749817 16.535214896576974 30.75103295895508 H 0.0 **** 0.06
24614 H 24.410198530487747 16.1481307695461 30.547515214371515 H 0.0 **** 0.06
24615 H 25.34759637438546 16.782342056993258 29.17388272882647 H 0.0 **** 0.06
24616 C 94.98805023518497 56.93424033718062 75.29200789768251 C 0.0 **** -0.24
24617 H 94.00008403209156 57.39245683018148 75.23622749586065 H 0.0 **** 0.06
24618 H 95.6435722430545 57.39416798100583 74.55199541876758 H 0.0 **** 0.06
24619 H 94.90485230177177 55.866556543134614 75.09099462159841 H 0.0 **** 0.06
24620 H 95.40258471752713 57.0856733784587 76.28837988087156 H 0.0 **** 0.06
24621 C 21.91674691979385 48.39626797960457 15.77240207350749 C 0.0 **** -0.24
24622 H 22.34194145230088 47.51976335156661 15.283092117085658 H 0.0 **** 0.06
24623 H 22.414204716043013 49.29356294737158 15.405835051617323 H 0.0 **** 0.06
24624 H 22.058795567840313 48.314602925801324 16.850504121885574 H 0.0 **** 0.06
24625 H 20.85125360171978 48.45424976300018 15.550237582714775 H 0.0 **** 0.06
24626 C 113.84581115502458 104.2320212640183 94.12311877131216 C 0.0 **** -0.24
24627 H 112.77201947378903 104.41813040222831 94.09328916307774 H 0.0 **** 0.06
24628 H 114.27382503784975 104.41647872881114 93.13797182606334 H 0.0 **** 0.06
24629 H 114.0264249199957 103.19547144563617 94.40998142038623 H 0.0 **** 0.06
24630 H 114.30948957936356 104.89669180948144 94.85226715797967 H 0.0 **** 0.06
24631 C 22.76442490854066 58.81484009582734 112.1485112564319 C 0.0 **** -0.24
24632 H 21.737349450756625 58.59885057467077 112.44063866823922 H 0.0 **** 0.06
24633 H 23.391034880500143 58.8714052240091 113.03937677636844 H 0.0 **** 0.06
24634 H 22.79996136584296 59.7661719603851 111.61778835246156 H 0.0 **** 0.06
24635 H 23.13091711708509 58.02134421984072 111.49605757159293 H 0.0 **** 0.06
24636 C 113.76547809484833 1.5841276718206387 36.51981552030418 C 0.0 **** -0.24
24637 H 114.07050379305943 2.34952805833413 35.80563096045276 H 0.0 **** 0.06
24638 H 113.5860763396617 2.045477834845613 37.49145849053258 H 0.0 **** 0.06
24639 H 114.5537795927747 0.8377357332004038 36.61082492733178 H 0.0 **** 0.06
24640 H 112.850377970015 1.106411881066947 36.170550117917315 H 0.0 **** 0.06
24641 C 86.06563669133007 114.77569770202983 31.977721942061315 C 0.0 **** -0.24
24642 H 85.09660344230309 114.34642453576637 32.23318251220313 H 0.0 **** 0.06
24643 H 86.21995516264113 114.70888074726541 30.900960944684698 H 0.0 **** 0.06
24644 H 86.85363177105887 114.22517360252654 32.49231107605527 H 0.0 **** 0.06
24645 H 86.09285953788793 115.82165417051655 32.28499382589631 H 0.0 **** 0.06
24646 C 74.5089919417349 21.447245622365045 53.58267041287118 C 0.0 **** -0.24
24647 H 73.71185574431874 20.73112526565552 53.782138403379435 H 0.0 **** 0.06
24648 H 74.22054486572219 22.08827118781241 52.7489321207205 H 0.0 **** 0.06
24649 H 75.42347523003718 20.911863066509568 53.32999528234663 H 0.0 **** 0.06
24650 H 74.67907898342946 22.05900358092856 54.46846076403327 H 0.0 **** 0.06
24651 C 107.46797748669931 41.21188145031715 83.50080626173857 C 0.0 **** -0.24
24652 H 107.44188960934332 40.4860063466966 82.68715289008077 H 0.0 **** 0.06
24653 H 106.47649244139649 41.64873941026784 83.62873834504032 H 0.0 **** 0.06
24654 H 108.18349568664215 41.998191489685354 83.26279549948035 H 0.0 **** 0.06
24655 H 107.76730975144346 40.71353969149716 84.42267047795323 H 0.0 **** 0.06
24656 C 100.23567818416672 99.59003973688809 12.701416056428684 C 0.0 **** -0.24
24657 H 100.63713058167778 100.57968428690427 12.481908335220226 H 0.0 **** 0.06
24658 H 100.21803602068661 99.43717635463975 13.780540011595946 H 0.0 **** 0.06
24659 H 100.86583489717813 98.8312963061633 12.236829230016895 H 0.0 **** 0.06
24660 H 99.2235425573744 99.51312395964996 12.30520859088756 H 0.0 **** 0.06
24661 C 40.69362346262179 70.69593040271198 73.20413891971563 C 0.0 **** -0.24
24662 H 41.632483005134574 71.09605422157193 72.8195862812434 H 0.0 **** 0.06
24663 H 40.04574995329193 70.42659262142575 72.3689352666577 H 0.0 **** 0.06
24664 H 40.202091884427624 71.45113093440011 73.81653239074083 H 0.0 **** 0.06
24665 H 40.89614278853288 69.81237256354646 73.8081541025268 H 0.0 **** 0.06
24666 C 37.477059205652836 34.684052426623424 13.671131377302402 C 0.0 **** -0.24
24667 H 38.32037452000077 34.13912505715448 13.2479111534077 H 0.0 **** 0.06
24668 H 36.79303791585755 33.981291467985216 14.147136512910492 H 0.0 **** 0.06
24669 H 36.95464384320479 35.21912072543871 12.87717536098819 H 0.0 **** 0.06
24670 H 37.83952388725564 35.397272212469396 14.411845149815065 H 0.0 **** 0.06
24671 C 24.544009772918265 58.55389889233624 79.2701302012058 C 0.0 **** -0.24
24672 H 23.723108302500272 57.89984821505481 79.56534960115536 H 0.0 **** 0.06
24673 H 25.11341613211993 58.84254262753986 80.15306400390355 H 0.0 **** 0.06
24674 H 24.14204127896388 59.445409847860525 78.78829149721687 H 0.0 **** 0.06
24675 H 25.1960264804966 58.025949189941805 78.57310840631166 H 0.0 **** 0.06
24676 C 71.167693462914 44.587849633055214 16.809941271780133 C 0.0 **** -0.24
24677 H 72.24362302859302 44.426546489562355 16.737031186115416 H 0.0 **** 0.06
24678 H 70.96577653888113 45.35924669879756 17.553525917365818 H 0.0 **** 0.06
24679 H 70.68090681190324 43.65915632871844 17.107732253349297 H 0.0 **** 0.06
24680 H 70.78194942979769 44.90577774551332 15.840881278318392 H 0.0 **** 0.06
24681 C 77.01034655248131 19.68327490048361 98.44790814761657 C 0.0 **** -0.24
24682 H 76.74742174688234 18.67266288233114 98.75745419449242 H 0.0 **** 0.06
24683 H 77.54214732373742 19.645041518916514 97.49728882070028 H 0.0 **** 0.06
24684 H 77.64838627724686 20.140484585141508 99.20387676559966 H 0.0 **** 0.06
24685 H 76.10235457621468 20.275828045014748 98.33301974154409 H 0.0 **** 0.06
24686 C 114.95598295975051 7.7997309150288245 66.36652106493156 C 0.0 **** -0.24
24687 H 113.97219126257174 8.201260839088242 66.60812723995892 H 0.0 **** 0.06
24688 H 115.60253315499699 8.60659668438602 66.0202343468336 H 0.0 **** 0.06
24689 H 114.85970077285668 7.049528857148472 65.58225292021265 H 0.0 **** 0.06
24690 H 115.39028648019631 7.342152339756277 67.25558646418838 H 0.0 **** 0.06
24691 C 102.39037839292612 106.09893555920334 88.07809954733438 C 0.0 **** -0.24
24692 H 101.30238274191382 106.10476277128319 88.00991237428914 H 0.0 **** 0.06
24693 H 102.71841030709675 105.18979358769815 88.58262203260023 H 0.0 **** 0.06
24694 H 102.72231006777474 106.96909227185625 88.64482315596126 H 0.0 **** 0.06
24695 H 102.81729419072147 106.13394781253461 87.0761878930553 H 0.0 **** 0.06
24696 C 53.18601815594706 8.552667511275573 111.9858872722901 C 0.0 **** -0.24
24697 H 52.227841474715476 8.968285401458672 112.29607128440415 H 0.0 **** 0.06
24698 H 53.020001219898774 7.78161497939351 111.23308492406197 H 0.0 **** 0.06
24699 H 53.689036311750044 8.116423000233482 112.84898891007948 H 0.0 **** 0.06
24700 H 53.80698555493323 9.343669706167233 111.56611001319146 H 0.0 **** 0.06
24701 C 12.568045145082635 9.223801033581786 14.541991988285218 C 0.0 **** -0.24
24702 H 12.802779142941148 9.696453750320963 13.587514954734871 H 0.0 **** 0.06
24703 H 12.166656294123186 8.226034446096243 14.3638549375668 H 0.0 **** 0.06
24704 H 11.82905804997037 9.824565015719134 15.072173727738658 H 0.0 **** 0.06
24705 H 13.475198329033276 9.149133449816325 15.141825990069208 H 0.0 **** 0.06
24706 C 48.67037443411827 97.27364107991656 82.00923724067442 C 0.0 **** -0.24
24707 H 49.011588409453736 98.19910241290177 82.47412041184455 H 0.0 **** 0.06
24708 H 48.992445175486125 96.42391984003967 82.61125320539048 H 0.0 **** 0.06
24709 H 49.09592704735607 97.19232371722163 81.00855923003314 H 0.0 **** 0.06
24710 H 47.58285361102236 97.28113705424016 81.94225078533265 H 0.0 **** 0.06
24711 C 100.62274680729956 74.61153905046754 37.37423374957045 C 0.0 **** -0.24
24712 H 99.72182055612078 74.00570391580268 37.47200211937732 H 0.0 **** 0.06
24713 H 101.46861279821573 73.96726499049686 37.1371334534185 H 0.0 **** 0.06
24714 H 100.81290550969544 75.13258432832001 38.311996720897554 H 0.0 **** 0.06
24715 H 100.48494309896492 75.34032729734946 36.57502424117608 H 0.0 **** 0.06
24716 C 68.14274693722484 72.26769513774497 78.22121368475078 C 0.0 **** -0.24
24717 H 68.60588973598877 72.75315751786138 77.36210717293525 H 0.0 **** 0.06
24718 H 67.27848187785295 71.69053611991546 77.89072252064136 H 0.0 **** 0.06
24719 H 67.8225409890367 73.02464262816164 78.93655735140806 H 0.0 **** 0.06
24720 H 68.86439066391412 71.60196394443176 78.69464929350048 H 0.0 **** 0.06
24721 C 104.06187686148738 79.90654922951376 88.14837551065509 C 0.0 **** -0.24
24722 H 103.79699355730452 80.19662215652474 87.13085126626265 H 0.0 **** 0.06
24723 H 105.11500361560462 79.62543616616412 88.18251519713448 H 0.0 **** 0.06
24724 H 103.44931359736259 79.05877077570773 88.45553006099613 H 0.0 **** 0.06
24725 H 103.8878136937175 80.74484981894895 88.82213217021797 H 0.0 **** 0.06
24726 C 81.1228989867403 80.71829280011042 60.9988668576671 C 0.0 **** -0.24
24727 H 81.99147827905557 80.26434427837387 61.47607407158899 H 0.0 **** 0.06
24728 H 81.4527695006233 81.4775319345253 60.28936324376932 H 0.0 **** 0.06
24729 H 80.49073925967585 81.17967281282449 61.75783823639514 H 0.0 **** 0.06
24730 H 80.55505280642114 79.95038554005973 60.4724144008751 H 0.0 **** 0.06
24731 C 108.04275761723557 93.59868799441566 10.897417183921107 C 0.0 **** -0.24
24732 H 108.59940478934341 94.20502052387965 10.18245089951796 H 0.0 **** 0.06
24733 H 106.98639810505131 93.86588046147341 10.855194109609783 H 0.0 **** 0.06
24734 H 108.4244145681319 93.78071098019066 11.901945210568101 H 0.0 **** 0.06
24735 H 108.16152139464134 92.54413642294546 10.64820618005848 H 0.0 **** 0.06
24736 C 94.24243523751221 105.72333340978474 82.17812943508218 C 0.0 **** -0.24
24737 H 95.2260167087704 105.27005267283414 82.30256835322552 H 0.0 **** 0.06
24738 H 93.47253310123259 104.99738409546276 82.43719349488919 H 0.0 **** 0.06
24739 H 94.11479021419225 106.03478959166912 81.14118209480682 H 0.0 **** 0.06
24740 H 94.15839703145019 106.59212728031164 82.8305861191078 H 0.0 **** 0.06
24741 C 4.054945856585704 52.45814848194908 42.95245532884576 C 0.0 **** -0.24
24742 H 3.7210202755867243 52.37097524511739 41.918533911035695 H 0.0 **** 0.06
24743 H 4.630184255740929 51.572559769211125 43.2232899747151 H 0.0 **** 0.06
24744 H 3.188771219607247 52.54371646285199 43.608586095791395 H 0.0 **** 0.06
24745 H 4.680249176140407 53.34438030092315 43.058473537929274 H 0.0 **** 0.06
24746 C 9.820136795006306 12.20550720960188 105.9143099371476 C 0.0 **** -0.24
24747 H 9.604879532863038 12.428248914421847 106.95920246216718 H 0.0 **** 0.06
24748 H 10.426999818697794 13.006422678405801 105.49078932781185 H 0.0 **** 0.06
24749 H 8.885244179174038 12.125255609464915 105.35951407186877 H 0.0 **** 0.06
24750 H 10.363251717896873 11.263184046499063 105.84862772311229 H 0.0 **** 0.06
24751 C 48.65190154838953 100.28315990052837 59.69583213958578 C 0.0 **** -0.24
24752 H 48.2160211237256 99.79053308959709 58.82558668227414 H 0.0 **** 0.06
24753 H 47.95058423454549 101.02214826001159 60.0839973431823 H 0.0 **** 0.06
24754 H 49.57964271219876 100.77718358075839 59.40634996681286 H 0.0 **** 0.06
24755 H 48.86056846422909 99.5398450692644 60.46605497407143 H 0.0 **** 0.06
24756 C 2.509053869803296 19.199046941097976 7.999591934161344 C 0.0 **** -0.24
24757 H 2.4192110745947133 18.122560492580305 8.148037923245852 H 0.0 **** 0.06
24758 H 3.473058252869137 19.423099890616214 7.545210303205238 H 0.0 **** 0.06
24759 H 2.433092863818615 19.706100432041296 8.96204749756538 H 0.0 **** 0.06
24760 H 1.7089396561560335 19.542237906741605 7.343811356389722 H 0.0 **** 0.06
24761 C 78.81930973481005 91.83598155388913 35.094638850735976 C 0.0 **** -0.24
24762 H 79.7550579605645 91.32462072364251 35.31624258594272 H 0.0 **** 0.06
24763 H 78.20579217838255 91.87660822191603 35.995227938972874 H 0.0 **** 0.06
24764 H 78.28423067341998 91.2937209379171 34.314491531961906 H 0.0 **** 0.06
24765 H 79.03075132857086 92.84910555742474 34.752527501953466 H 0.0 **** 0.06
24766 C 37.50414294647672 94.96081356038107 113.44765960301717 C 0.0 **** -0.24
24767 H 36.886820780748735 95.58733336215386 112.80369899989776 H 0.0 **** 0.06
24768 H 38.554477997311494 95.2023240998038 113.29036116225213 H 0.0 **** 0.06
24769 H 37.331279477633984 93.91196707172602 113.20592163164139 H 0.0 **** 0.06
24770 H 37.24108990306584 95.14197922606351 114.4899878067548 H 0.0 **** 0.06
24771 C 4.814551912271705 107.30843910840755 95.09851316861975 C 0.0 **** -0.24
24772 H 5.44120722058009 106.65354705749837 95.70367386954152 H 0.0 **** 0.06
24773 H 4.668330376790877 108.2548011737994 95.62049606789012 H 0.0 **** 0.06
24774 H 3.847948222097216 106.8323830894386 94.93102886937274 H 0.0 **** 0.06
24775 H 5.300213407205849 107.49217562927257 94.14085890495008 H 0.0 **** 0.06
24776 C 78.1064883338083 91.78070196919663 5.197502705128343 C 0.0 **** -0.24
24777 H 77.55050197272544 92.53956226660745 5.748749677660342 H 0.0 **** 0.06
24778 H 79.10043909001422 91.67263440203209 5.6302638292800395 H 0.0 **** 0.06
24779 H 78.19402819444997 92.08204726055203 4.153333757267049 H 0.0 **** 0.06
24780 H 77.57860654606284 90.82870136786846 5.2570901405338475 H 0.0 **** 0.06
24781 C 106.39736845504552 68.72471088213757 59.66767177383136 C 0.0 **** -0.24
24782 H 107.33696019345055 68.51327431613217 60.177855949301915 H 0.0 **** 0.06
24783 H 106.22864639117938 69.80180409602218 59.650787334464184 H 0.0 **** 0.06
24784 H 105.57853522754334 68.23660003990742 60.19664241809022 H 0.0 **** 0.06
24785 H 106.44571371244407 68.34880151297239 58.64582157379695 H 0.0 **** 0.06
24786 C 2.5002361046579153 98.12377645570064 106.63327724374724 C 0.0 **** -0.24
24787 H 3.1115144050306753 97.25187838752294 106.39912644231163 H 0.0 **** 0.06
24788 H 1.6906167469773266 97.83075503793583 107.30230785492893 H 0.0 **** 0.06
24789 H 2.08177082632632 98.53120205825434 105.71241177446814 H 0.0 **** 0.06
24790 H 3.1171022556660546 98.8809923175346 107.1175543072817 H 0.0 **** 0.06
24791 C 41.52822801298165 88.0433512141604 1.4682408203288446 C 0.0 **** -0.24
24792 H 41.838053285276345 87.05839923292277 1.1200486069222393 H 0.0 **** 0.06
24793 H 40.504557933078075 88.2372323665297 1.1477526967181149 H 0.0 **** 0.06
24794 H 42.18982774558929 88.80174102020501 1.0475500043856414 H 0.0 **** 0.06
24795 H 41.58198187414179 88.0780393505037 2.5563098503899226 H 0.0 **** 0.06
24796 C 102.76722712795674 69.95090599379677 97.63766386383313 C 0.0 **** -0.24
24797 H 103.03519964170658 68.92033200158755 97.40180792047491 H 0.0 **** 0.06
24798 H 103.60654186113936 70.60649881397063 97.40611303916779 H 0.0 **** 0.06
24799 H 102.52707855079268 70.02940802873599 98.69837311012657 H 0.0 **** 0.06
24800 H 101.90074648606765 70.24501847100589 97.04608372198166 H 0.0 **** 0.06
24801 C 88.78327192631704 13.467358687461388 8.952609413312103 C 0.0 **** -0.24
24802 H 89.13795405198064 12.986828103306124 8.04084798190766 H 0.0 **** 0.06
24803 H 88.34746240046724 12.71644686767376 9.612192239523878 H 0.0 **** 0.06
24804 H 88.02804123865599 14.212390041092856 8.701044526607049 H 0.0 **** 0.06
24805 H 89.61893348043836 13.952690039683421 9.456943844211665 H 0.0 **** 0.06
24806 C 14.392614364529663 100.95681514208096 14.866603615215126 C 0.0 **** -0.24
24807 H 14.275029974686351 101.46533137356982 13.909340246290213 H 0.0 **** 0.06
24808 H 13.525600431190469 100.32111369203443 15.048519856134448 H 0.0 **** 0.06
24809 H 14.474034996092197 101.69594011816761 15.663628031672914 H 0.0 **** 0.06
24810 H 15.293814760636796 100.34385195464864 14.84471851930789 H 0.0 **** 0.06
24811 C 74.35327536015234 112.18358795564717 25.475027261375033 C 0.0 **** -0.24
24812 H 73.67526982567097 111.67146119738885 24.792469110472553 H 0.0 **** 0.06
24813 H 73.87228950092279 112.29894048442185 26.446317310751624 H 0.0 **** 0.06
24814 H 74.5989695022767 113.16673254457763 25.072089126600133 H 0.0 **** 0.06
24815 H 75.26627340788073 111.59796923195131 25.586921384130164 H 0.0 **** 0.06
24816 C 64.3387891286749 28.787899202477604 62.9719272794623 C 0.0 **** -0.24
24817 H 63.982957419598726 27.980575900528777 63.61203730727137 H 0.0 **** 0.06
24818 H 63.84227725843737 29.717645568892692 63.24991582154147 H 0.0 **** 0.06
24819 H 64.11259059042766 28.55196980827543 61.93159388736979 H 0.0 **** 0.06
24820 H 65.4165154871861 28.899400764374946 63.09360020013012 H 0.0 **** 0.06
24821 C 81.60426700486173 94.52990311590912 106.44258932501853 C 0.0 **** -0.24
24822 H 82.05888505961431 94.92917806799016 105.53555297323678 H 0.0 **** 0.06
24823 H 81.8134148384795 93.4628966536502 106.51402681325374 H 0.0 **** 0.06
24824 H 80.526062021815 94.68803012045677 106.40753410642063 H 0.0 **** 0.06
24825 H 82.01885656199033 95.04177538278154 107.3112850551903 H 0.0 **** 0.06
24826 C 36.516735153445694 99.33230259896754 23.50060569282185 C 0.0 **** -0.24
24827 H 36.85147572854757 98.32308990927493 23.258962342011237 H 0.0 **** 0.06
24828 H 35.68536188630017 99.60451043720352 22.85003949888016 H 0.0 **** 0.06
24829 H 37.33910973033758 100.03167998593256 23.35147063305134 H 0.0 **** 0.06
24830 H 36.193022238834914 99.36831032329113 24.540144666689272 H 0.0 **** 0.06
24831 C 27.187128290464457 75.63057726775199 36.24366975926472 C 0.0 **** -0.24
24832 H 27.09918596955655 75.89359100151677 35.1899407428084 H 0.0 **** 0.06
24833 H 28.083100721132823 76.09219526936084 36.65975297264998 H 0.0 **** 0.06
24834 H 27.257641572291966 74.54685578407393 36.342420204793996 H 0.0 **** 0.06
24835 H 26.309621378875832 75.98872025147074 36.78273676216884 H 0.0 **** 0.06
24836 C 112.94164410624745 35.017516089697324 110.28961717200606 C 0.0 **** -0.24
24837 H 113.0452687693766 35.5484371950304 111.23651407229262 H 0.0 **** 0.06
24838 H 111.91256604719142 35.09928178313089 109.93797565454673 H 0.0 **** 0.06
24839 H 113.19528266308951 33.96773646001989 110.4328830324812 H 0.0 **** 0.06
24840 H 113.61410542609066 35.45629337405046 109.55241690163331 H 0.0 **** 0.06
24841 C 36.23233219739234 109.22243338706434 59.32676802220147 C 0.0 **** -0.24
24842 H 35.26786374108164 109.46854010787422 58.88246514338767 H 0.0 **** 0.06
24843 H 36.223597331409195 109.48805400875102 60.3843990624274 H 0.0 **** 0.06
24844 H 37.01889370806609 109.78057620667553 58.818119227920924 H 0.0 **** 0.06
24845 H 36.41905155015269 108.15411383645582 59.221320693156805 H 0.0 **** 0.06
24846 C 50.299683117998605 9.107756312661422 98.94262189461287 C 0.0 **** -0.24
24847 H 49.26274084024347 9.235980428717767 99.25431452674763 H 0.0 **** 0.06
24848 H 50.33637503138608 8.469015409327028 98.05964127265534 H 0.0 **** 0.06
24849 H 50.86718691097803 8.645764985749054 99.74997211486465 H 0.0 **** 0.06
24850 H 50.72963920271695 10.081213621067604 98.70541389152476 H 0.0 **** 0.06
24851 C 101.01974066350556 72.84784441600695 77.84592739941752 C 0.0 **** -0.24
24852 H 101.99911843767899 73.01172036386006 77.39694768230424 H 0.0 **** 0.06
24853 H 100.82275920146463 73.62764443335365 78.58305244043163 H 0.0 **** 0.06
24854 H 101.00118682087697 71.87336809747333 78.33353646628359 H 0.0 **** 0.06
24855 H 100.2541099161212 72.8799114284395 77.0697281185519 H 0.0 **** 0.06
24856 C 97.8354389776243 35.97312423090351 4.902004782587568 C 0.0 **** -0.24
24857 H 98.86130856835248 36.051660227946314 5.261020950035899 H 0.0 **** 0.06
24858 H 97.82013209720245 36.08326683671643 3.8171502581759995 H 0.0 **** 0.06
24859 H 97.23082860815396 36.759169440173366 5.355247806561948 H 0.0 **** 0.06
24860 H 97.42895503429463 34.99971248960213 5.175598135160826 H 0.0 **** 0.06
24861 C 115.17197559479877 38.554201636352055 81.92433156545917 C 0.0 **** -0.24
24862 H 114.44759476117315 38.137305774263346 81.22414283842531 H 0.0 **** 0.06
24863 H 116.04731787066089 38.903842468767415 81.37514100778472 H 0.0 **** 0.06
24864 H 115.47293163137033 37.78528963974081 82.6353461410101 H 0.0 **** 0.06
24865 H 114.72052892308233 39.38888337259366 82.45929435356064 H 0.0 **** 0.06
24866 C 95.57875750618308 9.025468026556112 92.71619774924139 C 0.0 **** -0.24
24867 H 95.0883135591742 8.823507182783501 91.763510200177 H 0.0 **** 0.06
24868 H 95.33579443722118 10.03648382752182 93.0415143634242 H 0.0 **** 0.06
24869 H 96.65792872911476 8.932266269114166 92.59418187293954 H 0.0 **** 0.06
24870 H 95.23368137230767 8.3098477373114 93.46152582971516 H 0.0 **** 0.06
24871 C 33.39847223628402 80.65502610890414 67.67984360071884 C 0.0 **** -0.24
24872 H 33.84411748288528 80.90016651345985 68.6430156322547 H 0.0 **** 0.06
24873 H 32.395292147028215 81.07780853799048 67.62566160682704 H 0.0 **** 0.06
24874 H 33.34194694396234 79.57128703586261 67.571415947769 H 0.0 **** 0.06
24875 H 34.011748525129235 81.06910881364553 66.87989820470503 H 0.0 **** 0.06
24876 C 99.33065941092974 85.76720133558123 86.58048910232384 C 0.0 **** -0.24
24877 H 99.77593177772499 86.25162674982008 87.44960791717148 H 0.0 **** 0.06
24878 H 99.99156086868547 84.97667556439279 86.22615848653146 H 0.0 **** 0.06
24879 H 99.18607989045537 86.50332406998629 85.7894094125632 H 0.0 **** 0.06
24880 H 98.36739949669888 85.33910683814196 86.85800920438237 H 0.0 **** 0.06
24881 C 68.02049146603747 115.43899933632387 26.595846194544627 C 0.0 **** -0.24
24882 H 68.42143878742627 116.21904933037217 27.243986833898198 H 0.0 **** 0.06
24883 H 67.52629374752507 114.68069026593501 27.204506221647534 H 0.0 **** 0.06
24884 H 68.8340468074465 114.98143335785991 26.033060232364697 H 0.0 **** 0.06
24885 H 67.30018752985563 115.87694058235736 25.904917352605494 H 0.0 **** 0.06
24886 C 99.34267452100286 68.43046656322852 17.726972205356475 C 0.0 **** -0.24
24887 H 98.33845514504256 68.4598184130472 18.150402138935505 H 0.0 **** 0.06
24888 H 99.84312998533585 69.38081704060338 17.91266890374382 H 0.0 **** 0.06
24889 H 99.27916917731972 68.25578374943461 16.65282511817921 H 0.0 **** 0.06
24890 H 99.90938284985404 67.62424070063682 18.19247245138996 H 0.0 **** 0.06
24891 C 13.491386996150823 65.66679217307859 113.949227274678 C 0.0 **** -0.24
24892 H 13.129000084805284 65.06008950396392 113.11908596811973 H 0.0 **** 0.06
24893 H 13.176472299980844 66.70060637702244 113.80794783684067 H 0.0 **** 0.06
24894 H 14.580066846001188 65.61972082235303 113.9848849957277 H 0.0 **** 0.06
24895 H 13.08041115114338 65.28544139370257 114.88393171851695 H 0.0 **** 0.06
24896 C 51.03090918934225 99.75500481409114 97.59973151154392 C 0.0 **** -0.24
24897 H 49.95328450333949 99.90997121552098 97.61968835646425 H 0.0 **** 0.06
24898 H 51.27006906132988 98.95883394493436 96.89412785657444 H 0.0 **** 0.06
24899 H 51.377011730585025 99.47489031704916 98.59412519858697 H 0.0 **** 0.06
24900 H 51.524696689691496 100.67588861445012 97.2890404877989 H 0.0 **** 0.06
24901 C 1.415719325324659 16.96011734002478 87.09140485407002 C 0.0 **** -0.24
24902 H 1.9859948928174447 16.309930827523587 87.75361339146411 H 0.0 **** 0.06
24903 H 1.7067384975171649 17.99659580282804 87.26126711354067 H 0.0 **** 0.06
24904 H 0.3511469758464898 16.84276559596016 87.29428968497987 H 0.0 **** 0.06
24905 H 1.6183916110885264 16.690396455367335 86.05444313201178 H 0.0 **** 0.06
24906 C 93.56296717455263 38.629095065722936 90.09555188222359 C 0.0 **** -0.24
24907 H 93.51334662482745 38.07891513601069 89.15621020976249 H 0.0 **** 0.06
24908 H 93.06047394806774 38.05759257102167 90.8772068809659 H 0.0 **** 0.06
24909 H 93.07204422677657 39.594476220894364 89.97785831699295 H 0.0 **** 0.06
24910 H 94.60671576918784 38.78250632381136 90.37200060430808 H 0.0 **** 0.06
24911 C 49.58566389670332 41.93725651640014 101.43494638094347 C 0.0 **** -0.24
24912 H 48.794843298692484 42.53835475188487 101.88415421885469 H 0.0 **** 0.06
24913 H 50.531095808010235 42.47605965682166 101.49749747954354 H 0.0 **** 0.06
24914 H 49.34595713060824 41.74339126286134 100.38937911680992 H 0.0 **** 0.06
24915 H 49.670506595166984 40.99049586336557 101.96994268443157 H 0.0 **** 0.06
24916 C 23.038881796962443 35.89802630694936 80.8878706431141 C 0.0 **** -0.24
24917 H 23.817245087777792 36.05465413880967 80.14101036187824 H 0.0 **** 0.06
24918 H 22.507053850336604 34.97220186241515 80.66898462989175 H 0.0 **** 0.06
24919 H 22.339321870354553 36.73322987542036 80.86317566341225 H 0.0 **** 0.06
24920 H 23.49268765593706 35.832835810033146 81.87638233387659 H 0.0 **** 0.06
24921 C 43.53825370520559 57.1641802178554 116.1268133854079 C 0.0 **** -0.24
24922 H 44.253885263779175 57.96221908442007 116.32463503887823 H 0.0 **** 0.06
24923 H 42.63636769890895 57.33100422620444 116.71771479860982 H 0.0 **** 0.06
24924 H 43.97931258607129 56.2052853251964 116.39941130627247 H 0.0 **** 0.06
24925 H 43.283580744964176 57.158932782377946 115.06760517269754 H 0.0 **** 0.06
24926 C 19.105911466231674 68.75250275324078 49.749473412079126 C 0.0 **** -0.24
24927 H 19.445531749841933 68.08447338619948 50.540855608447416 H 0.0 **** 0.06
24928 H 18.052117383812856 68.5643068777 49.54271427373645 H 0.0 **** 0.06
24929 H 19.69058780162797 68.57291774858703 48.84702075496847 H 0.0 **** 0.06
24930 H 19.235283387691908 69.78658895592957 50.06741293735929 H 0.0 **** 0.06
24931 C 109.15677321735348 0.5552689263670914 28.582304446778764 C 0.0 **** -0.24
24932 H 109.05213888903573 -0.3104496658670257 29.23446225266244 H 0.0 **** 0.06
24933 H 109.91149798095849 0.3487971814208777 27.821946605064454 H 0.0 **** 0.06
24934 H 109.46123266080758 1.4203052012784383 29.17189471512988 H 0.0 **** 0.06
24935 H 108.20222896462636 0.7632943895487898 28.098043473718263 H 0.0 **** 0.06
24936 C 72.63106692081857 18.550029681631642 66.38142408644399 C 0.0 **** -0.24
24937 H 71.98816961523164 18.400039535768016 65.51492775615219 H 0.0 **** 0.06
24938 H 73.62988502093603 18.171838248666717 66.163104088755 H 0.0 **** 0.06
24939 H 72.21839301080163 18.014283605710972 67.23673011125089 H 0.0 **** 0.06
24940 H 72.68672875966425 19.614705989699047 66.61205189024486 H 0.0 **** 0.06
24941 C 111.85890413202847 100.12022936484999 76.21473381889123 C 0.0 **** -0.24
24942 H 111.05848290450017 100.7859667534679 76.53815703277832 H 0.0 **** 0.06
24943 H 111.86502024884662 99.22833110514892 76.84223212226553 H 0.0 **** 0.06
24944 H 112.81582001624422 100.63359814546214 76.30290630600425 H 0.0 **** 0.06
24945 H 111.69510051591506 99.83342166694598 75.17628562661628 H 0.0 **** 0.06
24946 C 83.21267042788514 64.06639076267919 91.50489635872222 C 0.0 **** -0.24
24947 H 83.7804109910181 63.23000054139269 91.9115472730087 H 0.0 **** 0.06
24948 H 83.89992845851432 64.7999485331255 91.08057984979104 H 0.0 **** 0.06
24949 H 82.630744182598 64.53128669324875 92.30005641979832 H 0.0 **** 0.06
24950 H 82.5408093418009 63.70561622125356 90.72646823621349 H 0.0 **** 0.06
24951 C 101.73735325850328 74.00819155859847 72.91200349932129 C 0.0 **** -0.24
24952 H 101.7930270892017 73.9322412392207 73.99881307340601 H 0.0 **** 0.06
24953 H 101.09648048240297 73.21583888644918 72.52647368313674 H 0.0 **** 0.06
24954 H 102.7373978929487 73.90633356012617 72.48997427065092 H 0.0 **** 0.06
24955 H 101.32300920771192 74.97849453123317 72.63741445881234 H 0.0 **** 0.06
24956 C 65.77196218151724 78.63822904878754 112.29518245312201 C 0.0 **** -0.24
24957 H 66.85111382144387 78.51771533739264 112.38344387070248 H 0.0 **** 0.06
24958 H 65.50429939583469 78.75458898586555 111.24452788622355 H 0.0 **** 0.06
24959 H 65.45852757523113 79.52249939395043 112.84949250243866 H 0.0 **** 0.06
24960 H 65.2731086245127 77.75795065930126 112.70211011559762 H 0.0 **** 0.06
24961 C 2.6581031024714825 1.8329251666260973 60.454141997411234 C 0.0 **** -0.24
24962 H 3.297472276426493 2.7156435021395566 60.467194501678144 H 0.0 **** 0.06
24963 H 2.220052656220158 1.688068249569966 61.442295485495585 H 0.0 **** 0.06
24964 H 3.2514198865330357 0.9578624078283156 60.18809810529819 H 0.0 **** 0.06
24965 H 1.8632149309427444 1.9701980944020931 59.72069197556865 H 0.0 **** 0.06
24966 C 63.75260723993602 4.8221033240738524 97.70238987665323 C 0.0 **** -0.24
24967 H 63.13411137588576 4.753387057131793 96.80728098498687 H 0.0 **** 0.06
24968 H 63.115607076636984 4.975993586765499 98.57225850430333 H 0.0 **** 0.06
24969 H 64.44189763597001 5.6605178989806735 97.60265668133067 H 0.0 **** 0.06
24970 H 64.31909439887187 3.8993439414239504 97.82372547918499 H 0.0 **** 0.06
24971 C 43.57197029934008 41.61291422962799 51.3626527619015 C 0.0 **** -0.24
24972 H 43.808818624057324 41.97089462067515 50.3609018669014 H 0.0 **** 0.06
24973 H 43.96597808607055 42.312310655530524 52.101693093959426 H 0.0 **** 0.06
24974 H 44.0231885008655 40.63192644676266 51.51467948516003 H 0.0 **** 0.06
24975 H 42.49044329859771 41.53664558262713 51.4749755434452 H 0.0 **** 0.06
24976 C 14.367746836646575 64.45831754869272 100.8436674476734 C 0.0 **** -0.24
24977 H 14.062380044113468 64.59822259634944 101.88086159221186 H 0.0 **** 0.06
24978 H 14.947665295976094 63.53826620137056 100.75670656417745 H 0.0 **** 0.06
24979 H 14.979779372944165 65.30428913628353 100.52836076558373 H 0.0 **** 0.06
24980 H 13.484766389985737 64.39299429653914 100.20961363005767 H 0.0 **** 0.06
24981 C 4.752427053091253 45.87821837235248 6.285108907037749 C 0.0 **** -0.24
24982 H 4.199827051867146 46.75633168164072 5.949104007769359 H 0.0 **** 0.06
24983 H 4.63082550059255 45.07332560475317 5.5589913105675866 H 0.0 **** 0.06
24984 H 4.367626645582789 45.5562859529616 7.252518902584162 H 0.0 **** 0.06
24985 H 5.808673223617632 46.12751104071015 6.378383046946549 H 0.0 **** 0.06
24986 C 6.459343115798106 61.635634783945704 68.69035088072158 C 0.0 **** -0.24
24987 H 5.925594247071942 62.056625430686665 67.83803109748098 H 0.0 **** 0.06
24988 H 6.47354047448691 62.360510547463775 69.50375574894557 H 0.0 **** 0.06
24989 H 7.481932396456969 61.39794793497674 68.39613985539705 H 0.0 **** 0.06
24990 H 5.956231310300041 60.72676990297316 69.02134958200219 H 0.0 **** 0.06
24991 C 11.721609500586926 46.80614082430179 115.03940477688573 C 0.0 **** -0.24
24992 H 12.6017661638361 46.17114818418335 114.94059923871272 H 0.0 **** 0.06
24993 H 11.939612446726372 47.62355478211194 115.72735037946273 H 0.0 **** 0.06
24994 H 10.890542730368207 46.21642152761555 115.42635069511175 H 0.0 **** 0.06
24995 H 11.455733558590556 47.212940456700096 114.06383930173767 H 0.0 **** 0.06
24996 C 11.956977050826225 54.52365851756298 14.405999481822363 C 0.0 **** -0.24
24997 H 10.91678440210778 54.452741720164 14.089961576740336 H 0.0 **** 0.06
24998 H 12.314294253585985 53.53778947793353 14.704438172431637 H 0.0 **** 0.06
24999 H 12.03388718951382 55.20940095446781 15.250584697267868 H 0.0 **** 0.06
25000 H 12.56339556295211 54.895822073896454 13.580254460129737 H 0.0 **** 0.06
25001 C 83.79769063372311 20.7798841905841 57.3598903988098 C 0.0 **** -0.24
25002 H 83.51765651513827 20.9314277579538 58.40286233858125 H 0.0 **** 0.06
25003 H 84.13494775936067 21.725412719927135 56.934148164453426 H 0.0 **** 0.06
25004 H 82.93643397016132 20.415461674319218 56.80140041673112 H 0.0 **** 0.06
25005 H 84.60357062606042 20.047949123443047 57.30399342262057 H 0.0 **** 0.06
25006 C 72.48672187876255 104.09800442255732 53.96705054879337 C 0.0 **** -0.24
25007 H 73.55328713467543 103.9323662418237 53.81522989797077 H 0.0 **** 0.06
25008 H 72.2868033787878 105.16866021299575 54.00167280070045 H 0.0 **** 0.06
25009 H 72.1784915361057 103.63898167274735 54.90680327120697 H 0.0 **** 0.06
25010 H 71.9300262204734 103.65026648741707 53.14452846263055 H 0.0 **** 0.06
25011 C 34.1458090669364 103.69480857090664 22.495675823381674 C 0.0 **** -0.24
25012 H 33.85777885114576 104.71226695698587 22.759235999095694 H 0.0 **** 0.06
25013 H 33.74510617843261 103.44692257308944 21.512936959729018 H 0.0 **** 0.06
25014 H 33.74617342880506 103.0013833978874 23.23588314017799 H 0.0 **** 0.06
25015 H 35.23243031878215 103.6188331677674 22.476031769376988 H 0.0 **** 0.06
25016 C 50.44133759858926 30.601905014810143 88.46039385792415 C 0.0 **** -0.24
25017 H 50.65874880103223 31.607770467637124 88.81869259500834 H 0.0 **** 0.06
25018 H 51.37050593966745 30.11465509992712 88.16097974018572 H 0.0 **** 0.06
25019 H 49.768082551086934 30.658287098206358 87.6049719313263 H 0.0 **** 0.06
25020 H 49.96992638874565 30.025795607938278 89.257252971318 H 0.0 **** 0.06
25021 C 83.83859272727187 46.0651328808047 3.6000280623591205 C 0.0 **** -0.24
25022 H 83.88637940926367 45.89251563478551 2.525609340865005 H 0.0 **** 0.06
25023 H 83.52240130985086 47.091334438235236 3.78977360911853 H 0.0 **** 0.06
25024 H 84.82394978127252 45.901340053032186 4.0379349396797455 H 0.0 **** 0.06
25025 H 83.12361182986996 45.37429217441064 4.04780082809477 H 0.0 **** 0.06
25026 C 45.00084310241185 98.08281999347142 39.75461599781431 C 0.0 **** -0.24
25027 H 45.47013186864166 97.43652924606047 39.01372382213708 H 0.0 **** 0.06
25028 H 45.36345416920088 97.81837144931171 40.74789800346173 H 0.0 **** 0.06
25029 H 43.91893182157566 97.95419510501034 39.71621534965362 H 0.0 **** 0.06
25030 H 45.25085455022927 99.1221841735032 39.5406268160047 H 0.0 **** 0.06
25031 C 110.0787952289491 22.628212656274798 13.742880573473585 C 0.0 **** -0.24
25032 H 110.20505609082892 22.403255861219208 14.80193420888753 H 0.0 **** 0.06
25033 H 110.55375517355199 23.582290268010937 13.515390138320985 H 0.0 **** 0.06
25034 H 109.01618829275192 22.685310880073388 13.507083518866633 H 0.0 **** 0.06
25035 H 110.5407534198949 21.840111061640414 13.147473548967966 H 0.0 **** 0.06
25036 C 17.197558884694274 79.6462407817364 0.9435310419358842 C 0.0 **** -0.24
25037 H 16.56998983679324 80.24536675146908 0.28448091332158754 H 0.0 **** 0.06
25038 H 17.48697671701754 78.72722888560943 0.43286336344269216 H 0.0 **** 0.06
25039 H 16.642068565099578 79.39846334885866 1.8479108294914965 H 0.0 **** 0.06
25040 H 18.09015036585157 80.21201246271661 1.20830405701345 H 0.0 **** 0.06
25041 C 17.50626323901092 100.75255146920273 53.74303630497542 C 0.0 **** -0.24
25042 H 17.1526406810938 100.40013672454498 54.71190620900529 H 0.0 **** 0.06
25043 H 18.51175249871622 101.16207112307148 53.85023280256581 H 0.0 **** 0.06
25044 H 16.83563917316451 101.52754920991205 53.37065896555572 H 0.0 **** 0.06
25045 H 17.526017042176463 99.92051985008194 53.039301179985785 H 0.0 **** 0.06
25046 C 0.34058766934599305 0.208130175081493 76.1168295018872 C 0.0 **** -0.24
25047 H 0.8216825124641218 -0.7641796305039463 76.22198817833976 H 0.0 **** 0.06
25048 H 0.4468937244119502 0.5563559410532832 75.0895540813726 H 0.0 **** 0.06
25049 H 0.8106904048242569 0.9211309014029041 76.79318464037661 H 0.0 **** 0.06
25050 H -0.7173305834836157 0.11733601405867944 76.36204027777421 H 0.0 **** 0.06
25051 C 29.141119362032256 66.63600086456879 101.20326433602312 C 0.0 **** -0.24
25052 H 29.959124670458863 67.34501273701713 101.33000988167481 H 0.0 **** 0.06
25053 H 28.197905256581393 67.1180279741317 101.46205968571505 H 0.0 **** 0.06
25054 H 29.30157930290673 65.77635331843004 101.85498954609017 H 0.0 **** 0.06
25055 H 29.106400567114918 66.30342565217722 100.1654366312305 H 0.0 **** 0.06
25056 C 78.04646256447944 8.71357456301456 100.33217952918392 C 0.0 **** -0.24
25057 H 77.16878442456712 8.815127733082647 99.69464133997937 H 0.0 **** 0.06
25058 H 78.2060191430777 7.659719423971069 100.56463194483308 H 0.0 **** 0.06
25059 H 77.89175676256968 9.270787751017025 101.25586644319807 H 0.0 **** 0.06
25060 H 78.91927978209605 9.10732735972735 99.81247601978797 H 0.0 **** 0.06
25061 C 23.690124921575368 79.80621545865279 91.63597170123492 C 0.0 **** -0.24
25062 H 24.729049094097874 79.63165069491407 91.91259883489008 H 0.0 **** 0.06
25063 H 23.6526930572226 80.4137086377819 90.73057180077043 H 0.0 **** 0.06
25064 H 23.180440900520427 80.32831547600847 92.44584993004378 H 0.0 **** 0.06
25065 H 23.197675030377418 78.85122452445961 91.4532577889849 H 0.0 **** 0.06
25066 C 43.08105481537062 105.31877433212856 11.860337379027623 C 0.0 **** -0.24
25067 H 43.74611361849039 105.45862212649712 11.008284367935591 H 0.0 **** 0.06
25068 H 43.40291334016455 104.45054826756868 12.434302084487445 H 0.0 **** 0.06
25069 H 42.06243605319482 105.16206701348062 11.5042227224625 H 0.0 **** 0.06
25070 H 43.11109348935712 106.20574214797969 12.49323922088416 H 0.0 **** 0.06
25071 C 21.97525970573753 111.78369695170991 50.91023606962722 C 0.0 **** -0.24
25072 H 22.91877847812708 112.32366720362698 50.982970926886594 H 0.0 **** 0.06
25073 H 22.069226704256607 110.98587943861172 50.17335589093136 H 0.0 **** 0.06
25074 H 21.18593427708538 112.47110942197442 50.60449682858797 H 0.0 **** 0.06
25075 H 21.727012012063426 111.35412387370901 51.88153216457158 H 0.0 **** 0.06
25076 C 25.99953074656065 24.830514151807535 99.14127394100086 C 0.0 **** -0.24
25077 H 26.32676766395801 25.6891024966381 99.72670792939431 H 0.0 **** 0.06
25078 H 25.369167524492013 24.18938129971113 99.7576941351737 H 0.0 **** 0.06
25079 H 26.87069796605357 24.26779627766132 98.8052497485456 H 0.0 **** 0.06
25080 H 25.434105027543836 25.17459898208986 98.27632409104243 H 0.0 **** 0.06
25081 C 52.32935550766075 25.94637289499032 61.723939114756355 C 0.0 **** -0.24
25082 H 51.645115616642045 25.253748030331735 61.23343166589934 H 0.0 **** 0.06
25083 H 53.31998409255726 25.856297319495624 61.276547283432286 H 0.0 **** 0.06
25084 H 52.38683919360079 25.706953714297725 62.786271505940654 H 0.0 **** 0.06
25085 H 51.96488555812505 26.965685206414577 61.60083359734485 H 0.0 **** 0.06
25086 C 36.366588906692726 82.3066025231567 38.52264955390194 C 0.0 **** -0.24
25087 H 35.45267872306221 81.82610387765601 38.17467808880167 H 0.0 **** 0.06
25088 H 36.121506787532915 83.26926304971448 38.973416166704965 H 0.0 **** 0.06
25089 H 37.03952979294091 82.46032711521025 37.679459634125976 H 0.0 **** 0.06
25090 H 36.851014896249886 81.67168657177638 39.26423443728805 H 0.0 **** 0.06
25091 C 61.04658344567204 102.22488617271429 54.36392144740378 C 0.0 **** -0.24
25092 H 61.00706366675681 103.13450989527433 54.96242439838096 H 0.0 **** 0.06
25093 H 61.890693994181845 101.6149465280754 54.68725105391927 H 0.0 **** 0.06
25094 H 61.16801060662206 102.48653110654561 53.31269580623686 H 0.0 **** 0.06
25095 H 60.12174902887082 101.66386421824987 54.495186776064855 H 0.0 **** 0.06
25096 C 84.61509414777444 61.73799721698618 74.68304156205471 C 0.0 **** -0.24
25097 H 84.88475556721306 62.480365413647384 75.43452820284483 H 0.0 **** 0.06
25098 H 83.58661241520542 61.90469814737188 74.36160862011434 H 0.0 **** 0.06
25099 H 84.70600474477834 60.73990767249388 75.11080954933166 H 0.0 **** 0.06
25100 H 85.28322274147453 61.828424014567894 73.82694454336516 H 0.0 **** 0.06
25101 C 14.588789359223139 4.132578960292449 13.316037686349432 C 0.0 **** -0.24
25102 H 15.374032627985041 4.293346613421136 12.578038582406862 H 0.0 **** 0.06
25103 H 14.067227112905666 3.2013062897148643 13.095257257192145 H 0.0 **** 0.06
25104 H 13.881837141181297 4.9616309258919955 13.28126158066766 H 0.0 **** 0.06
25105 H 15.031451573812951 4.07417989095967 14.310861154018198 H 0.0 **** 0.06
25106 C 104.08284928049727 66.55542698684525 95.72752346172408 C 0.0 **** -0.24
25107 H 103.54362919602255 66.34415752381926 96.65076658275098 H 0.0 **** 0.06
25108 H 103.42773920123 67.08752327544073 95.03735658381007 H 0.0 **** 0.06
25109 H 104.40581479550227 65.61844762540568 95.2736358916699 H 0.0 **** 0.06
25110 H 104.95418719025142 67.17065573580774 95.94979973812741 H 0.0 **** 0.06
25111 C 39.93225987441806 93.00807036707181 0.6248354861682799 C 0.0 **** -0.24
25112 H 41.010160211026545 93.14515713753772 0.702113954901705 H 0.0 **** 0.06
25113 H 39.42419330347503 93.84264808510991 1.10897535429973 H 0.0 **** 0.06
25114 H 39.648336990417235 92.07640867265303 1.1153742859085867 H 0.0 **** 0.06
25115 H 39.645079496354846 92.96723968266721 -0.426283109642668 H 0.0 **** 0.06
25116 C 37.77946497123796 8.33615466695796 76.80358135339 C 0.0 **** -0.24
25117 H 36.704770189966354 8.503473909435275 76.87777963378267 H 0.0 **** 0.06
25118 H 38.17912107854579 8.094498560278453 77.78872566668045 H 0.0 **** 0.06
25119 H 38.261337366519086 9.238855008298636 76.42732866622848 H 0.0 **** 0.06
25120 H 37.97155448125949 7.50973216272962 76.11945532828727 H 0.0 **** 0.06
25121 C 74.43632893093326 63.61123509867294 66.55766541794156 C 0.0 **** -0.24
25122 H 75.06555084195438 63.773262729849726 65.68217193927913 H 0.0 **** 0.06
25123 H 74.61883511115508 64.40093452185053 67.28673420901191 H 0.0 **** 0.06
25124 H 74.67421047903093 62.64466913389719 67.00218829650117 H 0.0 **** 0.06
25125 H 73.38887958658847 63.626570313394986 66.25927210357318 H 0.0 **** 0.06
25126 C 30.490354114080333 104.55593191519625 23.955611339043685 C 0.0 **** -0.24
25127 H 29.610388408168944 104.92048237840405 23.425794132631438 H 0.0 **** 0.06
25128 H 31.296049360108867 104.37781770584658 23.24320942952471 H 0.0 **** 0.06
25129 H 30.245064445161603 103.62477854778928 24.468003226296787 H 0.0 **** 0.06
25130 H 30.808831973752547 105.29929722212083 24.68685334778695 H 0.0 **** 0.06
25131 C 45.66624642146678 92.75917300245086 93.09301094574653 C 0.0 **** -0.24
25132 H 44.69172483927906 93.24582746821363 93.06048323569019 H 0.0 **** 0.06
25133 H 46.44857345104771 93.50186857442196 92.9373136170222 H 0.0 **** 0.06
25134 H 45.720770920930136 92.00363914227043 92.30917828765064 H 0.0 **** 0.06
25135 H 45.80391647460988 92.28535682489752 94.06506864262269 H 0.0 **** 0.06
25136 C 24.000828247279117 86.84955645805366 35.96757700458624 C 0.0 **** -0.24
25137 H 24.566707522519152 87.4371217804721 36.69023500039107 H 0.0 **** 0.06
25138 H 24.620677660829983 86.03008965878499 35.60145553252649 H 0.0 **** 0.06
25139 H 23.707578503782145 87.48518064266531 35.13154141954743 H 0.0 **** 0.06
25140 H 23.109728405476346 86.44427838517922 36.446251928041924 H 0.0 **** 0.06
25141 C 26.23382139325531 97.01258044162702 85.7428910102094 C 0.0 **** -0.24
25142 H 26.272228120616035 97.39991108845715 84.724308214688 H 0.0 **** 0.06
25143 H 25.201602498651965 96.78216454068126 86.00503140014104 H 0.0 **** 0.06
25144 H 26.625306890481454 97.76220992697262 86.4300428592714 H 0.0 **** 0.06
25145 H 26.83756508349279 96.10739099054459 85.80950626058728 H 0.0 **** 0.06
25146 C 48.53438108153949 10.198985412632638 80.99999396328295 C 0.0 **** -0.24
25147 H 48.49872691013496 11.28497014458955 81.08604571287282 H 0.0 **** 0.06
25148 H 47.51897364233275 9.804141382659765 80.96793335381668 H 0.0 **** 0.06
25149 H 49.05992502425045 9.783336140512645 81.85978592531563 H 0.0 **** 0.06
25150 H 49.06035581920739 9.925120606679457 80.08514062092917 H 0.0 **** 0.06
25151 C 72.49167555875331 43.16578447423758 50.6744394213178 C 0.0 **** -0.24
25152 H 72.45589300776538 44.25281473840681 50.60718809772118 H 0.0 **** 0.06
25153 H 72.18490869356751 42.73270931055339 49.721745332430345 H 0.0 **** 0.06
25154 H 71.81830533429536 42.82736664359933 51.46159877450813 H 0.0 **** 0.06
25155 H 73.50881044557488 42.84972278594498 50.90672720549449 H 0.0 **** 0.06
25156 C 52.34511179943095 19.864203913357187 71.05579751047645 C 0.0 **** -0.24
25157 H 52.39392787301952 19.345961020266145 72.01365516178396 H 0.0 **** 0.06
25158 H 52.528247920485796 19.15365041393099 70.24906464446687 H 0.0 **** 0.06
25159 H 53.10162966493314 20.648484856648736 71.02795704389911 H 0.0 **** 0.06
25160 H 51.35718492896601 20.30800504352385 70.93207188539694 H 0.0 **** 0.06
25161 C 30.940509669859352 68.24431269606319 92.10526810654648 C 0.0 **** -0.24
25162 H 29.999151793739713 68.18106093845302 91.55847693114569 H 0.0 **** 0.06
25163 H 31.20248359094205 69.29130899499867 92.25688065037994 H 0.0 **** 0.06
25164 H 31.7256628759647 67.75168155700206 91.53322626434624 H 0.0 **** 0.06
25165 H 30.83215475561667 67.75271083195003 93.0714511723082 H 0.0 **** 0.06
25166 C 56.23689461367177 105.07489482806272 10.067546374425348 C 0.0 **** -0.24
25167 H 56.54484175917211 105.0316259476075 11.11251496599823 H 0.0 **** 0.06
25168 H 55.82177504043171 106.06005718345727 9.8524698806537 H 0.0 **** 0.06
25169 H 55.481327349456905 104.31332519758172 9.879757508309268 H 0.0 **** 0.06
25170 H 57.10097778522866 104.89675358053663 9.427295685233133 H 0.0 **** 0.06
25171 C 77.07218148643719 38.38330463575133 3.7290657816977415 C 0.0 **** -0.24
25172 H 76.00920639388843 38.49836061341128 3.517561579733126 H 0.0 **** 0.06
25173 H 77.44954144650518 37.495722590038596 3.220745443371314 H 0.0 **** 0.06
25174 H 77.21824150572849 38.27677863025857 4.803712520838673 H 0.0 **** 0.06
25175 H 77.6105477830034 39.26310766171308 3.3743949156081925 H 0.0 **** 0.06
25176 C 9.489545782693625 101.20802238753924 33.35974776529429 C 0.0 **** -0.24
25177 H 9.604117059346862 101.42816730854904 34.42122532723823 H 0.0 **** 0.06
25178 H 10.048203838713988 100.30455293186563 33.11439269473232 H 0.0 **** 0.06
25179 H 9.873476878832548 102.04293449938925 32.772438034137906 H 0.0 **** 0.06
25180 H 8.434802696916336 101.05802094385254 33.13173572700629 H 0.0 **** 0.06
25181 C 94.29067406948755 12.797121324535311 9.23206773514094 C 0.0 **** -0.24
25182 H 94.65211281455629 13.807950810414667 9.044747916342025 H 0.0 **** 0.06
25183 H 95.02129706235098 12.25570425981769 9.83191395840112 H 0.0 **** 0.06
25184 H 94.14475880074048 12.28146321461847 8.282830977755715 H 0.0 **** 0.06
25185 H 93.34263704410617 12.844484276334015 9.76835641187538 H 0.0 **** 0.06
25186 C 49.539965123099776 65.28457773516413 87.6373209973311 C 0.0 **** -0.24
25187 H 50.37183275278332 65.4199656387685 86.94516754366745 H 0.0 **** 0.06
25188 H 48.607962772871005 65.214767012594 87.07568668945382 H 0.0 **** 0.06
25189 H 49.49217932315585 66.13388976437975 88.31748675029948 H 0.0 **** 0.06
25190 H 49.68987233364422 64.36891571489434 88.20883199909457 H 0.0 **** 0.06
25191 C 41.83618850432458 87.37340159017998 45.162855249686174 C 0.0 **** -0.24
25192 H 41.40363120402577 87.57108656725791 44.18174117078456 H 0.0 **** 0.06
25193 H 42.08785961238692 88.31770178355225 45.64611790227747 H 0.0 **** 0.06
25194 H 42.73861061657817 86.77214801182222 45.04724168206246 H 0.0 **** 0.06
25195 H 41.1151175526108 86.83234701738817 45.77468327627298 H 0.0 **** 0.06
25196 C 52.104313478553564 34.51243568791486 88.8895801683048 C 0.0 **** -0.24
25197 H 51.75152623553558 33.715891100144376 88.23394544792717 H 0.0 **** 0.06
25198 H 51.26121898017931 35.13201212717024 89.19415631662986 H 0.0 **** 0.06
25199 H 52.83296846291424 35.12460746574396 88.35731834806887 H 0.0 **** 0.06
25200 H 52.5723543423569 34.07517759421438 89.77184379451268 H 0.0 **** 0.06
25201 C 49.083549476541236 70.33186379496541 45.28661607615388 C 0.0 **** -0.24
25202 H 50.06512937412242 69.85870851760899 45.25175948784383 H 0.0 **** 0.06
25203 H 48.47908253483746 69.9762662426894 44.45188852098542 H 0.0 **** 0.06
25204 H 49.199300518989446 71.41440215987299 45.216848826689414 H 0.0 **** 0.06
25205 H 48.591859197403664 70.07996377280227 46.2257076348764 H 0.0 **** 0.06
25206 C 71.71593364910146 108.87520469025313 26.423247805427877 C 0.0 **** -0.24
25207 H 70.67919122408338 109.16481365430315 26.25727597005354 H 0.0 **** 0.06
25208 H 71.74768805160255 107.97409808227553 27.036769264023178 H 0.0 **** 0.06
25209 H 72.24101587437883 109.68228605007502 26.935183702361883 H 0.0 **** 0.06
25210 H 72.1964440458091 108.67969556094592 25.465038612983506 H 0.0 **** 0.06
25211 C 10.587204032574618 62.05789701219544 66.9931258866039 C 0.0 **** -0.24
25212 H 10.705632723925405 60.99251092939943 66.79360608779712 H 0.0 **** 0.06
25213 H 9.717395403005781 62.21218904721957 67.63324306214326 H 0.0 **** 0.06
25214 H 10.446069702935176 62.59038740153284 66.05269192365012 H 0.0 **** 0.06
25215 H 11.478943547844551 62.43422395542461 67.4950159836732 H 0.0 **** 0.06
25216 C 31.061741025956863 81.75269878066251 37.90588624844585 C 0.0 **** -0.24
25217 H 30.197682199597068 82.2773861858729 38.31315939652262 H 0.0 **** 0.06
25218 H 31.696281622649366 81.40852886291577 38.72401545538881 H 0.0 **** 0.06
25219 H 31.628502859384014 82.42857580424192 37.26514038119922 H 0.0 **** 0.06
25220 H 30.72378501390733 80.89633984668887 37.32280817216875 H 0.0 **** 0.06
25221 C 104.64328232341452 65.07707898797318 70.67042949206143 C 0.0 **** -0.24
25222 H 104.83697873323024 66.06478520014099 71.08960623821056 H 0.0 **** 0.06
25223 H 105.19202120749875 64.96624100387535 69.73460386430767 H 0.0 **** 0.06
25224 H 103.57564137788984 64.96678498728951 70.481154572181 H 0.0 **** 0.06
25225 H 104.96788366291153 64.31255695532079 71.375702452648 H 0.0 **** 0.06
25226 C 45.84697509613249 67.49245146571499 26.73840953479734 C 0.0 **** -0.24
25227 H 44.93079553423863 67.9002200439258 26.311341906609726 H 0.0 **** 0.06
25228 H 46.03944314580756 67.96220035523098 27.702611772297303 H 0.0 **** 0.06
25229 H 46.68138957912111 67.68881980484568 26.064849638578693 H 0.0 **** 0.06
25230 H 45.736541112525785 66.41646349918375 26.873606441098218 H 0.0 **** 0.06
25231 C 112.9227499517184 19.76971312424412 80.31316534950702 C 0.0 **** -0.24
25232 H 113.84070152208784 19.9949482216238 80.8575118587782 H 0.0 **** 0.06
25233 H 113.16457943731046 19.21303704230536 79.40822935333554 H 0.0 **** 0.06
25234 H 112.42246105212212 20.700110178510783 80.04584108523744 H 0.0 **** 0.06
25235 H 112.26431760165107 19.17159192102349 80.94356511615524 H 0.0 **** 0.06
25236 C 39.48839958458912 13.6770568212157 60.49245339568065 C 0.0 **** -0.24
25237 H 40.17821729272228 12.834339168729457 60.53098154619169 H 0.0 **** 0.06
25238 H 38.49378940304551 13.319275233097727 60.22153267771963 H 0.0 **** 0.06
25239 H 39.831849777871724 14.393465647209553 59.746644918249395 H 0.0 **** 0.06
25240 H 39.448151662006424 14.15879686758666 61.468430080175686 H 0.0 **** 0.06
25241 C 91.0769926876269 19.08120903141277 64.29681624805477 C 0.0 **** -0.24
25242 H 90.18294101372726 19.005431712901032 64.91552082533065 H 0.0 **** 0.06
25243 H 91.66534236379812 18.167958772265905 64.39622299731587 H 0.0 **** 0.06
25244 H 91.67261276514466 19.93408959035913 64.62263437781064 H 0.0 **** 0.06
25245 H 90.78686786373845 19.21592350863296 63.254863007856045 H 0.0 **** 0.06
25246 C 21.331796731601884 75.84919835456023 94.7027591340476 C 0.0 **** -0.24
25247 H 21.854544241934803 75.06449249201904 95.24873684235979 H 0.0 **** 0.06
25248 H 20.714131566606255 75.39990621111005 93.92481678009028 H 0.0 **** 0.06
25249 H 22.05865310832033 76.52109527803586 94.24629741789636 H 0.0 **** 0.06
25250 H 20.699766227311613 76.4102749410446 95.39021487748334 H 0.0 **** 0.06
25251 C 39.969605820297005 12.985715066049721 77.533919247776 C 0.0 **** -0.24
25252 H 40.7848972358164 12.264812060105498 77.47287229406984 H 0.0 **** 0.06
25253 H 40.07191746741748 13.573989301252112 78.4463669306327 H 0.0 **** 0.06
25254 H 39.0167614346459 12.457103973787099 77.54776923493287 H 0.0 **** 0.06
25255 H 40.00521201818668 13.648276475943845 76.66832140578353 H 0.0 **** 0.06
25256 C 99.52167868043014 115.2574152016292 13.863917615157945 C 0.0 **** -0.24
25257 H 99.17939082683068 116.29212143044674 13.885643617134292 H 0.0 **** 0.06
25258 H 100.14824653643487 115.06404226019686 14.735444250440537 H 0.0 **** 0.06
25259 H 100.09787934233265 115.0849861015481 12.955006753879303 H 0.0 **** 0.06
25260 H 98.65985713244947 114.58985979315824 13.880751899076131 H 0.0 **** 0.06
25261 C 95.19491600116095 5.832897157377431 86.13537333166633 C 0.0 **** -0.24
25262 H 96.25528375858079 5.639010802305052 86.29949009576558 H 0.0 **** 0.06
25263 H 94.61618659704112 4.955279113991281 86.42342334932269 H 0.0 **** 0.06
25264 H 95.025215858727 6.051164800622416 85.0809943363169 H 0.0 **** 0.06
25265 H 94.88516892031129 6.687110996263897 86.7380801208829 H 0.0 **** 0.06
25266 C 29.330793939943703 29.124550964659676 1.8024788912073433 C 0.0 **** -0.24
25267 H 28.588879166871237 28.330242816715376 1.8805363274394722 H 0.0 **** 0.06
25268 H 28.895629455195774 30.062036348682724 2.147665725413461 H 0.0 **** 0.06
25269 H 29.643926191622768 29.22856728333332 0.7635319367856823 H 0.0 **** 0.06
25270 H 30.195018347487547 28.876053813023823 2.4196728551200692 H 0.0 **** 0.06
25271 C 49.75596575911353 53.14728207511823 95.97267320441273 C 0.0 **** -0.24
25272 H 50.58860535227377 52.452551265217835 95.8618066972441 H 0.0 **** 0.06
25273 H 48.86158076427768 52.716169386685294 95.52255398370647 H 0.0 **** 0.06
25274 H 49.99810096938195 54.08599726522215 95.4732341550843 H 0.0 **** 0.06
25275 H 49.576263808997616 53.33425166855099 97.03075234553427 H 0.0 **** 0.06
25276 C 30.447726083042028 47.99031779947324 4.472674396469586 C 0.0 **** -0.24
25277 H 29.687006037565425 48.47473282908221 3.8598456244905037 H 0.0 **** 0.06
25278 H 31.058111743297104 48.75077179136258 4.961818704970909 H 0.0 **** 0.06
25279 H 31.08017205084849 47.36675239649462 3.8413858670065224 H 0.0 **** 0.06
25280 H 29.964269719961635 47.37072372082485 5.228166358674059 H 0.0 **** 0.06
25281 C 72.55117735739617 41.69526774485459 96.84945964402164 C 0.0 **** -0.24
25282 H 72.27715590058745 40.74670314759655 97.31090020701103 H 0.0 **** 0.06
25283 H 72.53811448933345 42.483269598904656 97.60375436059104 H 0.0 **** 0.06
25284 H 71.83899553011724 41.93567625428818 96.05999034888612 H 0.0 **** 0.06
25285 H 73.55197028525794 41.61570708454384 96.4239603699045 H 0.0 **** 0.06
25286 C 65.42496611756962 19.68685400581822 52.41830457223952 C 0.0 **** -0.24
25287 H 66.39326852197524 19.245501508065246 52.656460929891665 H 0.0 **** 0.06
25288 H 65.44664338954897 20.081436430836163 51.40150130498196 H 0.0 **** 0.06
25289 H 65.21313543317567 20.495665934025197 53.116935329501615 H 0.0 **** 0.06
25290 H 64.6491862569585 18.926077229367593 52.49665118210831 H 0.0 **** 0.06
25291 C 65.71013991823654 115.55921754613729 2.3442097271957465 C 0.0 **** -0.24
25292 H 64.73045984415879 115.61487001119147 1.8700107188346777 H 0.0 **** 0.06
25293 H 66.46021440771375 115.29908770026023 1.5972828946104158 H 0.0 **** 0.06
25294 H 65.6932364940877 114.7964628560266 3.1230804212699894 H 0.0 **** 0.06
25295 H 65.95536637004975 116.52466075756485 2.786858980174401 H 0.0 **** 0.06
25296 C 51.678859290948054 97.53194256604007 70.83763403361652 C 0.0 **** -0.24
25297 H 51.052131248857535 97.07228788284522 70.07332748095448 H 0.0 **** 0.06
25298 H 51.85773665798985 98.57638593700958 70.58010935497975 H 0.0 **** 0.06
25299 H 52.630234387138245 97.00314777571239 70.89294627160558 H 0.0 **** 0.06
25300 H 51.1748006519951 97.47578247396464 71.80251376952563 H 0.0 **** 0.06
25301 C 100.3657428606007 18.71270169605478 54.4222745478134 C 0.0 **** -0.24
25302 H 100.4589905372599 17.68589279129702 54.06716277783431 H 0.0 **** 0.06
25303 H 100.99354444014418 19.365348830251094 53.81495345663075 H 0.0 **** 0.06
25304 H 100.68411381032641 18.765845830182116 55.463722407779414 H 0.0 **** 0.06
25305 H 99.32558321303802 19.03081620809303 54.343419602939036 H 0.0 **** 0.06
25306 C 6.739420389413112 110.73760054752148 110.21359452386585 C 0.0 **** -0.24
25307 H 6.582744553945631 111.7761297929788 110.50417604570734 H 0.0 **** 0.06
25308 H 7.722787577710932 110.41083480553846 110.55142299696448 H 0.0 **** 0.06
25309 H 6.6801459131153536 110.65183619652504 109.12831206619701 H 0.0 **** 0.06
25310 H 5.971795936094978 110.11331788006413 110.66904893112938 H 0.0 **** 0.06
25311 C 18.019629426245018 58.98141615801537 20.549680180742016 C 0.0 **** -0.24
25312 H 18.125109034065957 59.494800734349404 21.505350253596703 H 0.0 **** 0.06
25313 H 18.152594475795695 59.6961465560825 19.73710725534231 H 0.0 **** 0.06
25314 H 17.027988834906353 58.535944780646865 20.484587671993978 H 0.0 **** 0.06
25315 H 18.77591961078616 58.199402671561025 20.47184628904249 H 0.0 **** 0.06
25316 C 78.90040554029281 48.149624843318406 65.20079381314855 C 0.0 **** -0.24
25317 H 79.55483003431715 48.55434805552561 65.9728369917249 H 0.0 **** 0.06
25318 H 79.31782326795454 47.21572659806877 64.82410496970255 H 0.0 **** 0.06
25319 H 78.81622736176348 48.86667332350203 64.38375677803805 H 0.0 **** 0.06
25320 H 77.91254700612663 47.96313506445752 65.62225799210543 H 0.0 **** 0.06
25321 C 113.22972040200565 43.407893308391884 76.88267649851599 C 0.0 **** -0.24
25322 H 114.03665486181208 43.94836632979532 77.3779417622888 H 0.0 **** 0.06
25323 H 113.36137537667614 43.466363208486825 75.80214967581031 H 0.0 **** 0.06
25324 H 112.27296054324276 43.85233616297663 77.1568773137746 H 0.0 **** 0.06
25325 H 113.24764035683117 42.36393848944538 77.19535391451916 H 0.0 **** 0.06
25326 C 21.567696672139153 92.64833796241635 90.73399015101836 C 0.0 **** -0.24
25327 H 20.483180873129545 92.55677927020312 90.7819315787693 H 0.0 **** 0.06
25328 H 21.99855376422074 92.3589133521952 91.69305771436171 H 0.0 **** 0.06
25329 H 21.835869848573505 93.68112567582241 90.51165111728864 H 0.0 **** 0.06
25330 H 21.953411262997225 91.99569221407512 89.95043365621743 H 0.0 **** 0.06
25331 C 8.85408576332361 88.13769805798779 54.65994846088597 C 0.0 **** -0.24
25332 H 9.192137162730376 89.07405861663955 54.217604657419486 H 0.0 **** 0.06
25333 H 7.779823892262925 88.18694613895619 54.83924166667373 H 0.0 **** 0.06
25334 H 9.372820286524245 87.97495334349662 55.604962560164324 H 0.0 **** 0.06
25335 H 9.071829431579317 87.3146621976706 53.97936295801577 H 0.0 **** 0.06
25336 C 27.041043494297526 41.74022259690594 8.205856169358697 C 0.0 **** -0.24
25337 H 27.396881706386125 42.60723714245029 8.762066459476841 H 0.0 **** 0.06
25338 H 27.464698603231824 41.754570696546864 7.201959555709891 H 0.0 **** 0.06
25339 H 25.953513781393156 41.77036895509329 8.142981247828487 H 0.0 **** 0.06
25340 H 27.350286101059083 40.82855562329263 8.717650404774417 H 0.0 **** 0.06
25341 C 26.49624195512459 81.7210109505217 46.39484774056396 C 0.0 **** -0.24
25342 H 27.46067569105945 81.60490818711563 46.888513251872126 H 0.0 **** 0.06
25343 H 25.698200739864404 81.47275836539319 47.09400351180378 H 0.0 **** 0.06
25344 H 26.44624026443276 81.05347776932112 45.534246622207746 H 0.0 **** 0.06
25345 H 26.380513860812684 82.75263536094465 46.0614064545438 H 0.0 **** 0.06
25346 C 88.011092497694 61.15453411502051 98.74757226592547 C 0.0 **** -0.24
25347 H 88.14931905124234 61.49111224872206 97.71954084076631 H 0.0 **** 0.06
25348 H 87.4554041667713 61.908935053381356 99.30466801877455 H 0.0 **** 0.06
25349 H 88.98475911762904 61.002080234766254 99.21374081991556 H 0.0 **** 0.06
25350 H 87.45643786482816 60.21646481610509 98.75171553673022 H 0.0 **** 0.06
25351 C 94.59105673868956 67.73790704646245 59.544100407949394 C 0.0 **** -0.24
25352 H 93.82748015170202 67.05260003184472 59.912783316358194 H 0.0 **** 0.06
25353 H 94.4424347415775 68.72191199736483 59.988865208454094 H 0.0 **** 0.06
25354 H 94.51577507011851 67.81421134512965 58.458494401357164 H 0.0 **** 0.06
25355 H 95.57787476815517 67.3611933157762 59.813683278813166 H 0.0 **** 0.06
25356 C 46.06995459904692 93.2120480299877 67.25374874381282 C 0.0 **** -0.24
25357 H 45.100430077995156 93.0701963577066 67.73030956848902 H 0.0 **** 0.06
25358 H 45.93467951625769 93.2977948034507 66.17447804286164 H 0.0 **** 0.06
25359 H 46.71083964104474 92.3587151774183 67.4725415550096 H 0.0 **** 0.06
25360 H 46.532701131646775 94.12215524325109 67.63517824122707 H 0.0 **** 0.06
25361 C 92.68353626161806 1.756315236081008 102.88279385795923 C 0.0 **** -0.24
25362 H 92.53668000649776 2.1576226890917383 101.8804184336289 H 0.0 **** 0.06
25363 H 93.64170236449021 1.2378451342868573 102.93020164647925 H 0.0 **** 0.06
25364 H 91.88079195753596 1.056574177184416 103.11500494650755 H 0.0 **** 0.06
25365 H 92.67454830866504 2.5716108607291517 103.60603601155353 H 0.0 **** 0.06
25366 C 6.250699188391167 59.48824709634598 66.09833490016294 C 0.0 **** -0.24
25367 H 6.236191502056158 58.39958419908222 66.14846051496897 H 0.0 **** 0.06
25368 H 7.261900234983727 59.84783795663609 66.28930304782821 H 0.0 **** 0.06
25369 H 5.571384827980921 59.895514304064584 66.84752140316749 H 0.0 **** 0.06
25370 H 5.932779972216082 59.80997214349696 65.10588620405986 H 0.0 **** 0.06
25371 C 43.9464255632831 37.70432999936953 27.491970686307553 C 0.0 **** -0.24
25372 H 43.38715546392672 36.772785821725144 27.407558945503496 H 0.0 **** 0.06
25373 H 44.03650881986435 38.16470395707256 26.50743279214717 H 0.0 **** 0.06
25374 H 44.940500385111875 37.496155990911966 27.888668104749144 H 0.0 **** 0.06
25375 H 43.4223160049127 38.383051517217424 28.16430259511506 H 0.0 **** 0.06
25376 C 2.0911264998203283 97.4189887311251 102.52974392208228 C 0.0 **** -0.24
25377 H 1.615392457343999 96.75061741869592 103.24794996422597 H 0.0 **** 0.06
25378 H 3.172176662382231 97.38374988298116 102.66204545257617 H 0.0 **** 0.06
25379 H 1.736822412952618 98.43656897855433 102.69179629186903 H 0.0 **** 0.06
25380 H 1.838095540756962 97.10191304253152 101.51771311950532 H 0.0 **** 0.06
25381 C 80.0740634060449 92.22495746089396 94.09693634787101 C 0.0 **** -0.24
25382 H 80.15455980071144 91.26843029810198 93.58087621413159 H 0.0 **** 0.06
25383 H 79.08717968225739 92.65318406317314 93.9161144214855 H 0.0 **** 0.06
25384 H 80.83940512821428 92.90471715240264 93.72334735710473 H 0.0 **** 0.06
25385 H 80.21374893953703 92.07311733429404 95.16733557512427 H 0.0 **** 0.06
25386 C 16.571019585394307 105.96467721169762 75.55108382034837 C 0.0 **** -0.24
25387 H 17.242147439916536 105.25467949335618 75.06690548893584 H 0.0 **** 0.06
25388 H 17.111561511890322 106.88731843023797 75.76525815045102 H 0.0 **** 0.06
25389 H 16.199177741604046 105.53614156258087 76.482496663024 H 0.0 **** 0.06
25390 H 15.73246468768523 106.1799842237429 74.88948236194392 H 0.0 **** 0.06
25391 C 112.45910470954085 108.126181458193 89.54492445535013 C 0.0 **** -0.24
25392 H 111.95588087037443 107.97750322338214 90.50009799553291 H 0.0 **** 0.06
25393 H 113.36660753926543 108.71067719115439 89.69925646899836 H 0.0 **** 0.06
25394 H 111.7947815431949 108.65755196503511 88.86405660360526 H 0.0 **** 0.06
25395 H 112.71912100595318 107.15733830350922 89.11679653399202 H 0.0 **** 0.06
25396 C 5.686423373594096 83.13268401284677 108.1313648121326 C 0.0 **** -0.24
25397 H 6.401581452840503 83.03096186903096 107.31463992876212 H 0.0 **** 0.06
25398 H 4.700285017059485 83.35562326625771 107.72416438310853 H 0.0 **** 0.06
25399 H 6.000578433854287 83.94328335522863 108.78899942037928 H 0.0 **** 0.06
25400 H 5.6457980133042724 82.20075314533557 108.6957879152596 H 0.0 **** 0.06
25401 C 11.962512812598419 41.496655707116446 113.06675942173696 C 0.0 **** -0.24
25402 H 12.618954689213524 42.3658063261981 113.07829781854558 H 0.0 **** 0.06
25403 H 11.019202386715222 41.74563575453692 113.55454363411118 H 0.0 **** 0.06
25404 H 12.44036578165057 40.67320105176073 113.59893422811685 H 0.0 **** 0.06
25405 H 11.771895162154749 41.19901774366032 112.03495730761176 H 0.0 **** 0.06
25406 C 32.21233038647484 57.70392813350651 29.363359557829824 C 0.0 **** -0.24
25407 H 31.96036518610181 58.583024094233565 28.770083226929046 H 0.0 **** 0.06
25408 H 31.893107267620607 56.80633775085661 28.834486205471876 H 0.0 **** 0.06
25409 H 31.70563233743964 57.75930704900318 30.326705919844926 H 0.0 **** 0.06
25410 H 33.290691036578714 57.67015469511952 29.52185147441918 H 0.0 **** 0.06
25411 C 2.011224772709795 112.42025179982289 111.49332173171311 C 0.0 **** -0.24
25412 H 1.547246926904009 112.55138005845441 112.47052634837524 H 0.0 **** 0.06
25413 H 1.2348907832428893 112.33355932580008 110.73216603010357 H 0.0 **** 0.06
25414 H 2.617897812291716 111.51391402802517 111.49764769510591 H 0.0 **** 0.06
25415 H 2.6430252169166977 113.28006676025679 111.27243183138106 H 0.0 **** 0.06
25416 C 38.87518195657823 97.45607885146546 26.00046483830255 C 0.0 **** -0.24
25417 H 39.22661469501026 97.43527463279185 24.96962484533617 H 0.0 **** 0.06
25418 H 39.66121646550343 97.85140530593259 26.644515114849867 H 0.0 **** 0.06
25419 H 38.61874563181248 96.44501596997583 26.318042026457363 H 0.0 **** 0.06
25420 H 37.99361925908616 98.0934512798483 26.07069002105726 H 0.0 **** 0.06
25421 C 59.46978722709321 78.63640942276632 13.558437690014046 C 0.0 **** -0.24
25422 H 59.04071057660644 78.65154032613623 14.559512190342758 H 0.0 **** 0.06
25423 H 59.265932584916584 77.6742052236049 13.08938941054285 H 0.0 **** 0.06
25424 H 60.547170201599954 78.78812187180085 13.622859842965426 H 0.0 **** 0.06
25425 H 59.02639920955494 79.43369355748476 12.960907683197604 H 0.0 **** 0.06
25426 C 108.95761521191275 21.086715218621293 78.37810389335732 C 0.0 **** -0.24
25427 H 108.99046859779709 20.082169608562026 78.80067551530311 H 0.0 **** 0.06
25428 H 109.02702637278512 21.82077373222492 79.18032026247243 H 0.0 **** 0.06
25429 H 108.0193914696429 21.223033682653636 77.84006257098773 H 0.0 **** 0.06
25430 H 109.79318698584375 21.218824048561743 77.69057786050237 H 0.0 **** 0.06
25431 C 20.09420310226011 111.50650560637435 101.97928963284357 C 0.0 **** -0.24
25432 H 20.693824847799448 111.69193527206446 102.87130793710185 H 0.0 **** 0.06
25433 H 20.20470513891729 110.46503388730588 101.67734440566869 H 0.0 **** 0.06
25434 H 20.4329447713433 112.15711946778862 101.17343070441066 H 0.0 **** 0.06
25435 H 19.04615874973436 111.71244890038565 102.19773272545373 H 0.0 **** 0.06
25436 C 92.2595622034626 46.97477096513761 21.72944940803694 C 0.0 **** -0.24
25437 H 91.23790294776896 46.758811756655376 22.044236690045384 H 0.0 **** 0.06
25438 H 92.95567938468105 46.62962032676606 22.49374048963076 H 0.0 **** 0.06
25439 H 92.37626044392869 48.04869524333563 21.58797833852303 H 0.0 **** 0.06
25440 H 92.46570492125778 46.46002551145541 20.79043645446657 H 0.0 **** 0.06
25441 C 106.435851056562 91.07620293909184 76.95098238137243 C 0.0 **** -0.24
25442 H 105.97309813959001 91.18426239861441 77.9325897009737 H 0.0 **** 0.06
25443 H 106.65458301668164 92.06227551309149 76.541442197391 H 0.0 **** 0.06
25444 H 105.7522130560107 90.54893390689443 76.2844836913932 H 0.0 **** 0.06
25445 H 107.36103984616992 90.50807874992921 77.04693323056867 H 0.0 **** 0.06
25446 C 47.93003012999215 96.66996520354485 94.37888221393382 C 0.0 **** -0.24
25447 H 48.882829798731365 97.14928765599086 94.1548337278985 H 0.0 **** 0.06
25448 H 47.74450173431052 96.71472832563214 95.45167921105451 H 0.0 **** 0.06
25449 H 47.964274988310734 95.62798811873611 94.05936842626647 H 0.0 **** 0.06
25450 H 47.130067416532015 97.18632427201058 93.84915881359944 H 0.0 **** 0.06
25451 C 98.07378807934776 32.06656261440148 94.68378961810043 C 0.0 **** -0.24
25452 H 97.35154040765283 32.53951150603069 95.3495317881787 H 0.0 **** 0.06
25453 H 99.059025082809 32.07649543380785 95.15204218295801 H 0.0 **** 0.06
25454 H 98.11277903497725 32.61425665902638 93.74242046694852 H 0.0 **** 0.06
25455 H 97.77163579433508 31.03722260911769 94.49439575745231 H 0.0 **** 0.06
25456 C 81.6484705672272 115.46196058030809 38.22661550272787 C 0.0 **** -0.24
25457 H 82.6897567266007 115.3687541024753 37.91678538511033 H 0.0 **** 0.06
25458 H 81.05162907595405 115.82580003625318 37.390941533427736 H 0.0 **** 0.06
25459 H 81.57812152966991 116.16579833424245 39.05661638239181 H 0.0 **** 0.06
25460 H 81.27502371187364 114.48792783068296 38.54366384308307 H 0.0 **** 0.06
25461 C 7.957220385874166 27.852539241010277 14.277043796643483 C 0.0 **** -0.24
25462 H 8.678217384069796 27.9855386574647 15.082908165989778 H 0.0 **** 0.06
25463 H 7.182062991652373 27.15479930861568 14.594447304284813 H 0.0 **** 0.06
25464 H 8.465403873583284 27.456732341709824 13.397500488888483 H 0.0 **** 0.06
25465 H 7.503853365812361 28.813008684206977 14.032068784893823 H 0.0 **** 0.06
25466 C 116.08424827643358 37.86274468212429 77.11642348211495 C 0.0 **** -0.24
25467 H 115.69236924032413 37.13820523251462 76.40295074866245 H 0.0 **** 0.06
25468 H 116.36448738240244 37.35028428258954 78.03704576191461 H 0.0 **** 0.06
25469 H 115.31908940245256 38.60851056722407 77.33391866832079 H 0.0 **** 0.06
25470 H 116.95995151257915 38.353584608787344 76.69258160786342 H 0.0 **** 0.06
25471 C 20.916109767874786 101.18384255466867 48.53682551739925 C 0.0 **** -0.24
25472 H 21.616861890996603 101.85130437308547 48.03376862543675 H 0.0 **** 0.06
25473 H 21.427791588650535 100.26094764291031 48.81092165938662 H 0.0 **** 0.06
25474 H 20.087174259706927 100.95594861386869 47.86564124701508 H 0.0 **** 0.06
25475 H 20.533316597009218 101.66876813008935 49.43474618804487 H 0.0 **** 0.06
25476 C 34.2338361580326 80.25089818219129 76.72037732249836 C 0.0 **** -0.24
25477 H 33.529597895322865 80.1109023308536 75.90049649210468 H 0.0 **** 0.06
25478 H 34.51219779146703 81.30300029139244 76.7834085374354 H 0.0 **** 0.06
25479 H 35.12430030506613 79.64927106101322 76.54159448722442 H 0.0 **** 0.06
25480 H 33.76738184128237 79.9416406517351 77.65585801686672 H 0.0 **** 0.06
25481 C 97.26397250045886 98.29231277644439 27.909534759826016 C 0.0 **** -0.24
25482 H 96.41746378210104 97.82945965421993 28.417597738960666 H 0.0 **** 0.06
25483 H 96.90011786877108 98.90803531697318 27.08609951077085 H 0.0 **** 0.06
25484 H 97.92145723596818 97.51604532343569 27.51928154022923 H 0.0 **** 0.06
25485 H 97.81412336122744 98.91503136060155 28.61411228522806 H 0.0 **** 0.06
25486 C 100.85900704790993 31.355827176415453 17.395872025133436 C 0.0 **** -0.24
25487 H 100.21376142625274 32.149303119120376 17.01780321313467 H 0.0 **** 0.06
25488 H 101.36101675455214 31.696673286462605 18.301899180042103 H 0.0 **** 0.06
25489 H 101.60370540003493 31.10400664678398 16.64073709866086 H 0.0 **** 0.06
25490 H 100.2579584694673 30.474726811009056 17.62108243821446 H 0.0 **** 0.06
25491 C 69.74670590816442 69.95982332967375 35.12621767791842 C 0.0 **** -0.24
25492 H 70.36222302678937 69.10220366481994 35.3983227504431 H 0.0 **** 0.06
25493 H 68.96345725846103 69.64150898066762 34.43682692734299 H 0.0 **** 0.06
25494 H 70.3679821469432 70.7164623482636 34.64697744674638 H 0.0 **** 0.06
25495 H 69.2915435436104 70.37967711471774 36.02449609636831 H 0.0 **** 0.06
25496 C 76.87106484191457 30.262514361648243 26.942441415644453 C 0.0 **** -0.24
25497 H 76.57852193358838 30.58113239594462 27.94296336074865 H 0.0 **** 0.06
25498 H 77.71668839424058 30.860978519571063 26.603333125737606 H 0.0 **** 0.06
25499 H 76.03196926686996 30.39604417164969 26.258762805333504 H 0.0 **** 0.06
25500 H 77.15655950607629 29.210594787438424 26.964846705942364 H 0.0 **** 0.06
25501 C 93.99658891425946 31.15296446673134 44.082145475789545 C 0.0 **** -0.24
25502 H 94.4911101263877 30.352287975673057 44.63156777026248 H 0.0 **** 0.06
25503 H 93.53820080403847 31.84791647569361 44.7862712142296 H 0.0 **** 0.06
25504 H 93.22805773192067 30.730086185877163 43.43559407693188 H 0.0 **** 0.06
25505 H 94.73072476580964 31.682984940336844 43.47416365325634 H 0.0 **** 0.06
25506 C 30.388339845643415 21.742908236298263 1.732863155897478 C 0.0 **** -0.24
25507 H 29.38393393093611 21.877353035025948 2.132689671279799 H 0.0 **** 0.06
25508 H 30.851885948280525 20.874091887738928 2.200459288903785 H 0.0 **** 0.06
25509 H 30.985647998007266 22.63021208219986 1.9430579012924927 H 0.0 **** 0.06
25510 H 30.333564484166672 21.589635902427233 0.6549530330197015 H 0.0 **** 0.06
25511 C 113.49618473664808 31.9168210741218 22.27694946232006 C 0.0 **** -0.24
25512 H 112.62309583863222 31.45629965883444 22.73941543449854 H 0.0 **** 0.06
25513 H 113.45293632442204 31.773916081716038 21.19699866189967 H 0.0 **** 0.06
25514 H 114.4007839386278 31.452696766094846 22.66938143502324 H 0.0 **** 0.06
25515 H 113.50739320100459 32.98280099287939 22.502504561211424 H 0.0 **** 0.06
25516 C 79.38211548132318 32.51064044303385 88.75568853071951 C 0.0 **** -0.24
25517 H 79.27907100035645 33.35882029947541 89.43319187805412 H 0.0 **** 0.06
25518 H 80.38997780661171 32.49628930998702 88.34189571768863 H 0.0 **** 0.06
25519 H 78.65707908139277 32.6020853153083 87.94706129356055 H 0.0 **** 0.06
25520 H 79.20031848707356 31.585325735591624 89.30282703262944 H 0.0 **** 0.06
25521 C 81.52461140105535 39.94822202370966 27.156242655342112 C 0.0 **** -0.24
25522 H 80.43712730818143 39.8692150457623 27.159445036071496 H 0.0 **** 0.06
25523 H 81.94526110186044 39.13968346143937 26.558160550533252 H 0.0 **** 0.06
25524 H 81.89710478238229 39.87560236108175 28.178349825384714 H 0.0 **** 0.06
25525 H 81.81789218991821 40.90702467812133 26.729155086044827 H 0.0 **** 0.06
25526 C 96.60025501437246 62.512898487689306 92.23264635848383 C 0.0 **** -0.24
25527 H 96.60163594337675 62.74311007283358 91.16717946967944 H 0.0 **** 0.06
25528 H 96.8724631572293 61.4671428814051 92.37837196592261 H 0.0 **** 0.06
25529 H 95.60497732942045 62.68912794299491 92.64044467188512 H 0.0 **** 0.06
25530 H 97.32121360875215 63.1512487381707 92.74334943018985 H 0.0 **** 0.06
25531 C 76.2910492469843 81.37659008416114 84.52710998892178 C 0.0 **** -0.24
25532 H 75.96220187280835 81.9871722857066 85.36816097277361 H 0.0 **** 0.06
25533 H 77.26142174451445 80.9342956228972 84.75796477531796 H 0.0 **** 0.06
25534 H 76.37952103344458 82.00062383570912 83.63755132769583 H 0.0 **** 0.06
25535 H 75.56452506109443 80.58485283141624 84.34553722341863 H 0.0 **** 0.06
25536 C 15.951322859248762 39.60801731851319 47.699412315606516 C 0.0 **** -0.24
25537 H 15.374625283768069 38.92267393790587 48.321470502543 H 0.0 **** 0.06
25538 H 15.33056389115518 40.46206078240999 47.428731646492885 H 0.0 **** 0.06
25539 H 16.275040828455417 39.091796043934494 46.79605569025042 H 0.0 **** 0.06
25540 H 16.824143162167047 39.9523909165095 48.253194267199554 H 0.0 **** 0.06
25541 C 10.617800837574809 100.6987794257524 73.93218711368121 C 0.0 **** -0.24
25542 H 11.68238220641312 100.48750564362146 73.83683092332774 H 0.0 **** 0.06
25543 H 10.399475433716248 101.01091502020597 74.95397447631558 H 0.0 **** 0.06
25544 H 10.04593993655116 99.80139826519735 73.69635217527934 H 0.0 **** 0.06
25545 H 10.342475632222921 101.49636408375386 73.24159913688715 H 0.0 **** 0.06
25546 C 26.101686940481898 59.180876012599406 33.804021479767755 C 0.0 **** -0.24
25547 H 25.242620126715195 58.527601670577205 33.653347089556235 H 0.0 **** 0.06
25548 H 27.019343895802706 58.59737568379098 33.73038020482352 H 0.0 **** 0.06
25549 H 26.040591741308447 59.63956045246356 34.79049341404118 H 0.0 **** 0.06
25550 H 26.10315821850469 59.96014663377999 33.04027201608062 H 0.0 **** 0.06
25551 C 23.501220368547948 46.325092511352125 106.52685253807104 C 0.0 **** -0.24
25552 H 24.5034213112027 45.9772398981263 106.2769830116664 H 0.0 **** 0.06
25553 H 22.95735689434261 46.554318765536436 105.61081663623736 H 0.0 **** 0.06
25554 H 23.571445306313777 47.22306970155 107.14132420855645 H 0.0 **** 0.06
25555 H 22.974063400253314 45.547244962764694 107.07916103922568 H 0.0 **** 0.06
25556 C 102.54127602407908 83.20053665471548 69.9028303114859 C 0.0 **** -0.24
25557 H 102.2614381295516 83.9119742863069 70.67906426459126 H 0.0 **** 0.06
25558 H 103.53555119539223 83.4435991368691 69.52729667418595 H 0.0 **** 0.06
25559 H 101.82156102778174 83.25139622012995 69.08664864405227 H 0.0 **** 0.06
25560 H 102.54609088215707 82.19270696721014 70.31960984740965 H 0.0 **** 0.06
25561 C 90.1812519642846 79.6320610271228 106.01492901658301 C 0.0 **** -0.24
25562 H 89.25768274638634 79.64982622785664 105.43601945387397 H 0.0 **** 0.06
25563 H 90.02590790227308 80.14912916014765 106.96211630828168 H 0.0 **** 0.06
25564 H 90.97159110708543 80.12957423077125 105.45459027741376 H 0.0 **** 0.06
25565 H 90.4675218623062 78.59788492746475 106.20907423856767 H 0.0 **** 0.06
25566 C 35.3647084830221 18.225960042462397 89.23952633132399 C 0.0 **** -0.24
25567 H 34.29900198257428 18.050634934718552 89.09279623637357 H 0.0 **** 0.06
25568 H 35.69903586077095 19.01640486429172 88.56590382310273 H 0.0 **** 0.06
25569 H 35.91621840693114 17.31019572193299 89.02840921896316 H 0.0 **** 0.06
25570 H 35.54395360712016 18.52880188019608 90.2718809500928 H 0.0 **** 0.06
25571 C 4.53813950250796 66.08746942865014 100.8790250907328 C 0.0 **** -0.24
25572 H 5.153819407553527 66.42420938055363 100.04524850334028 H 0.0 **** 0.06
25573 H 3.7730703926615092 65.40349464912072 100.51228854085312 H 0.0 **** 0.06
25574 H 4.062295348059749 66.9472247064462 101.34974381234616 H 0.0 **** 0.06
25575 H 5.165334926028933 65.57353705784419 101.60842310733872 H 0.0 **** 0.06
25576 C 64.44313872856307 0.7918230282636216 64.48238827799221 C 0.0 **** -0.24
25577 H 64.78851166933421 -0.06999944444856965 63.91063171231978 H 0.0 **** 0.06
25578 H 65.28972257727762 1.2513465821828618 64.9931885278614 H 0.0 **** 0.06
25579 H 63.70605893731735 0.46867550320268947 65.21722091180254 H 0.0 **** 0.06
25580 H 63.98869726617664 1.5168322463697734 63.80636267349525 H 0.0 **** 0.06
25581 C 77.33291325307732 87.37982196419688 42.445322899529636 C 0.0 **** -0.24
25582 H 77.28181103994788 88.299338735037 43.02870824220024 H 0.0 **** 0.06
25583 H 77.22617707414636 87.6154793240517 41.386776762567735 H 0.0 **** 0.06
25584 H 76.528680741861 86.71108982562413 42.752460284085615 H 0.0 **** 0.06
25585 H 78.2936977664306 86.8944304955748 42.615146850749944 H 0.0 **** 0.06
25586 C 79.42050367613928 53.53937488376561 97.78374437242087 C 0.0 **** -0.24
25587 H 79.88439918162601 54.01756844567902 96.91994986370901 H 0.0 **** 0.06
25588 H 78.37179421440811 53.83009974162552 97.84008664290525 H 0.0 **** 0.06
25589 H 79.93514528865887 53.85472093480371 98.69159836232868 H 0.0 **** 0.06
25590 H 79.49371124884186 52.456692872324226 97.6818313232547 H 0.0 **** 0.06
25591 C 115.2309763734627 85.49656746969282 73.47608930846414 C 0.0 **** -0.24
25592 H 115.62012169196424 85.41456898855014 72.46109760862163 H 0.0 **** 0.06
25593 H 114.14341493248514 85.56708766109048 73.44342400256167 H 0.0 **** 0.06
25594 H 115.63996079925776 86.38925952493602 73.95054338131297 H 0.0 **** 0.06
25595 H 115.5223313073885 84.61572670461615 74.04821413216544 H 0.0 **** 0.06
25596 C 101.91544150614698 88.99886860062031 34.05607919230516 C 0.0 **** -0.24
25597 H 100.906053924015 89.40460769707539 33.988503626421675 H 0.0 **** 0.06
25598 H 101.99120868677389 88.10936688012123 33.42983000133859 H 0.0 **** 0.06
25599 H 102.13103018739562 88.73481964832868 35.09077845351567 H 0.0 **** 0.06
25600 H 102.6310501255351 89.74651673811314 33.71488497209356 H 0.0 **** 0.06
25601 C 26.69527881063965 60.17714791989502 105.87233065809156 C 0.0 **** -0.24
25602 H 27.75034599517204 60.10841963500633 106.13690694572148 H 0.0 **** 0.06
25603 H 26.243570303765296 59.18603089869376 105.92177234850402 H 0.0 **** 0.06
25604 H 26.599788742867077 60.57058758286783 104.85992664354274 H 0.0 **** 0.06
25605 H 26.188048975847437 60.843083715019304 106.57010737752663 H 0.0 **** 0.06
25606 C 114.01741572003624 55.21798259103375 58.263626946402944 C 0.0 **** -0.24
25607 H 113.2849672220955 55.855263534317906 57.76757130846321 H 0.0 **** 0.06
25608 H 115.00598211794262 55.66986925132256 58.17961556105286 H 0.0 **** 0.06
25609 H 114.02549283319387 54.23637236444376 57.78932417738627 H 0.0 **** 0.06
25610 H 113.75382542024884 55.112294792100116 59.31572968728813 H 0.0 **** 0.06
25611 C 65.10427149217858 97.35140686227612 5.09477699650251 C 0.0 **** -0.24
25612 H 64.90540822414306 97.1361174752862 4.044907077445767 H 0.0 **** 0.06
25613 H 64.1612063369102 97.51429916881176 5.6170836209385175 H 0.0 **** 0.06
25614 H 65.72159234530034 98.24656016613193 5.171088845490328 H 0.0 **** 0.06
25615 H 65.62872935195054 96.50830671386893 5.545101425181423 H 0.0 **** 0.06
25616 C 49.911667459072596 73.23442242291028 100.95333429141505 C 0.0 **** -0.24
25617 H 48.9582820815531 73.38662860545239 100.44810907205763 H 0.0 **** 0.06
25618 H 50.48519818720815 74.16102756197037 100.93427193176791 H 0.0 **** 0.06
25619 H 50.470891536269015 72.44895757955305 100.4455534890418 H 0.0 **** 0.06
25620 H 49.7307296599619 72.93952357983432 101.98787876112982 H 0.0 **** 0.06
25621 C 49.40048655812615 46.61674325119063 42.70341067171836 C 0.0 **** -0.24
25622 H 49.00963138058199 47.612514230931225 42.91466265598265 H 0.0 **** 0.06
25623 H 49.51083242171552 46.49068743417888 41.62541354501994 H 0.0 **** 0.06
25624 H 48.71118316250704 45.86673973646947 43.089745309183996 H 0.0 **** 0.06
25625 H 50.37204598938462 46.49932661834751 43.18464724641768 H 0.0 **** 0.06
25626 C 62.883253325584086 93.80804971421679 102.02520032801115 C 0.0 **** -0.24
25627 H 62.124951171251475 94.2878998886921 102.6434111180682 H 0.0 **** 0.06
25628 H 62.77179633040816 94.13889732181087 100.99163161586173 H 0.0 **** 0.06
25629 H 62.76223697255312 92.72607448549235 102.07591126855985 H 0.0 **** 0.06
25630 H 63.87420062249246 94.0803663922145 102.38890359295968 H 0.0 **** 0.06
25631 C 19.13506692572591 71.6966368690752 86.13560210724543 C 0.0 **** -0.24
25632 H 18.15020365988059 71.53543783283067 85.69878394699728 H 0.0 **** 0.06
25633 H 19.683631891748178 72.42270331154458 85.53584053172722 H 0.0 **** 0.06
25634 H 19.682511817085214 70.75375998930693 86.1562250534036 H 0.0 **** 0.06
25635 H 19.023920334189512 72.07464634261888 87.15155889685329 H 0.0 **** 0.06
25636 C 72.37198174915983 48.04921458025234 23.72554983598303 C 0.0 **** -0.24
25637 H 72.3828968214662 48.651815488427616 22.81743147272192 H 0.0 **** 0.06
25638 H 71.59628446892296 47.288238004139316 23.647663553031066 H 0.0 **** 0.06
25639 H 72.16811785630071 48.689783896952946 24.58411461653253 H 0.0 **** 0.06
25640 H 73.34187509539319 47.56863761102187 23.85434287362102 H 0.0 **** 0.06
25641 C 77.8891906087957 65.45832635787224 20.595797668783092 C 0.0 **** -0.24
25642 H 78.34257787951947 66.24185137263962 21.20364514015347 H 0.0 **** 0.06
25643 H 77.74116124685727 65.82633884191466 19.580499639072315 H 0.0 **** 0.06
25644 H 76.92614693680329 65.17841803426438 21.024841121907258 H 0.0 **** 0.06
25645 H 78.5452664183905 64.58827163789539 20.575916382748005 H 0.0 **** 0.06
25646 C 84.42231974701346 108.70536741676798 4.434827347682475 C 0.0 **** -0.24
25647 H 84.51138108079022 109.39641693708839 3.5959777393651695 H 0.0 **** 0.06
25648 H 85.22243066849256 108.8979849215828 5.149518171111495 H 0.0 **** 0.06
25649 H 84.49861961575269 107.68080076351802 4.070825334425381 H 0.0 **** 0.06
25650 H 83.45718125831033 108.84707898023326 4.920701270934503 H 0.0 **** 0.06
25651 C 97.50716334379354 114.79557748864666 17.2753567654771 C 0.0 **** -0.24
25652 H 98.55974546029665 114.80349920587756 17.55735333553767 H 0.0 **** 0.06
25653 H 97.11541449296982 113.78197113040413 17.364238665439913 H 0.0 **** 0.06
25654 H 97.40483764171913 115.13469848265213 16.244013744103015 H 0.0 **** 0.06
25655 H 96.94860904576075 115.46113038256902 17.933179980329342 H 0.0 **** 0.06
25656 C 17.826135545894914 19.521760606355258 18.766932732311034 C 0.0 **** -0.24
25657 H 17.652445077150446 18.596374118789413 18.217847648561644 H 0.0 **** 0.06
25658 H 18.783030456517423 19.460934195684075 19.286335564933296 H 0.0 **** 0.06
25659 H 17.02700202905814 19.66740323588843 19.493978694098786 H 0.0 **** 0.06
25660 H 17.843188962619877 20.359725442827482 18.070542726394876 H 0.0 **** 0.06
25661 C 92.28500608826909 63.98569773503135 96.68219660651607 C 0.0 **** -0.24
25662 H 93.235922751842 64.17742656252528 97.17897573540398 H 0.0 **** 0.06
25663 H 92.44556203696774 63.91255184367674 95.60676673592982 H 0.0 **** 0.06
25664 H 91.59458771617662 64.80327318009779 96.8924985320096 H 0.0 **** 0.06
25665 H 91.86384588271716 63.050352835294404 97.05207093686062 H 0.0 **** 0.06
25666 C 97.59683868867063 88.31059174915117 12.590342045396739 C 0.0 **** -0.24
25667 H 97.45314402879006 88.11504528021914 11.527590239199782 H 0.0 **** 0.06
25668 H 97.97598253578175 87.41090371624057 13.076952218720805 H 0.0 **** 0.06
25669 H 96.64535643238324 88.59355631563264 13.039628686240889 H 0.0 **** 0.06
25670 H 98.31456212153608 89.12140665861386 12.716184161258838 H 0.0 **** 0.06
25671 C 68.70995120946685 11.37551064807397 79.1547748721311 C 0.0 **** -0.24
25672 H 69.09127527171813 12.14627572459517 79.82463390743823 H 0.0 **** 0.06
25673 H 68.31529504413174 11.842766860472011 78.25156270920965 H 0.0 **** 0.06
25674 H 67.91647810084132 10.82106471913822 79.65471590485964 H 0.0 **** 0.06
25675 H 69.51776497913639 10.694164353808091 78.88830707183286 H 0.0 **** 0.06
25676 C 58.25484755016848 33.552781139532186 14.630622542145602 C 0.0 **** -0.24
25677 H 59.22037883228447 33.58579433055755 14.125466663075485 H 0.0 **** 0.06
25678 H 58.316944894051176 32.88559813949938 15.489953497662157 H 0.0 **** 0.06
25679 H 57.49599550696337 33.18615193163738 13.939130976788107 H 0.0 **** 0.06
25680 H 57.986888210162704 34.554141440074474 14.965934694470391 H 0.0 **** 0.06
25681 C 31.24869868033187 58.52743235783792 71.00387267222416 C 0.0 **** -0.24
25682 H 31.000799217488463 57.77521375165673 70.25440883638902 H 0.0 **** 0.06
25683 H 30.351778342682735 59.08957327070214 71.26399085472394 H 0.0 **** 0.06
25684 H 32.00126906105771 59.20595221060844 70.60201995724876 H 0.0 **** 0.06
25685 H 31.640857718851578 58.03544143593724 71.89443947820848 H 0.0 **** 0.06
25686 C 60.40178979693818 30.534068336648033 23.649315638654798 C 0.0 **** -0.24
25687 H 60.8221902194071 30.42018850213165 22.650402328955465 H 0.0 **** 0.06
25688 H 60.52953727033245 31.565557784898488 23.981580919219653 H 0.0 **** 0.06
25689 H 60.91629967850884 29.864534900004685 24.33902467773919 H 0.0 **** 0.06
25690 H 59.34045015046491 30.288106492222454 23.627593506051824 H 0.0 **** 0.06
25691 C 103.69385562199687 2.4254669980846018 36.723221424417744 C 0.0 **** -0.24
25692 H 103.72975974470393 1.715402720969152 35.89812659667294 H 0.0 **** 0.06
25693 H 103.08987256843932 2.011606663946708 37.53201075595361 H 0.0 **** 0.06
25694 H 103.25024757260346 3.3598679415558053 36.37923778042676 H 0.0 **** 0.06
25695 H 104.7049460703503 2.6149986301921757 37.08479282916659 H 0.0 **** 0.06
25696 C 77.78245592061205 24.15784770141748 53.731699322073666 C 0.0 **** -0.24
25697 H 76.76929968858633 23.871777926767805 53.448701942923016 H 0.0 **** 0.06
25698 H 78.40967206747587 23.26686837583992 53.785845717592444 H 0.0 **** 0.06
25699 H 77.76294002547559 24.647558615174816 54.705503891136296 H 0.0 **** 0.06
25700 H 78.18763989331558 24.843515173951786 52.98820690640173 H 0.0 **** 0.06
25701 C 15.859597402435668 81.07668101340596 83.39840143013726 C 0.0 **** -0.24
25702 H 16.188820815508706 81.99848986145295 82.91724506682999 H 0.0 **** 0.06
25703 H 16.470382504264222 80.8913584158177 84.28251461011314 H 0.0 **** 0.06
25704 H 15.967405523952038 80.24530319153953 82.70215272397013 H 0.0 **** 0.06
25705 H 14.814519263952235 81.17274250192017 83.69132938904244 H 0.0 **** 0.06
25706 C 35.34496513309843 0.32785914538300176 100.34248801383285 C 0.0 **** -0.24
25707 H 35.77222869489141 -0.13157547292729532 99.45112016074782 H 0.0 **** 0.06
25708 H 35.775126141058664 1.3198786048956208 100.48282299512917 H 0.0 **** 0.06
25709 H 35.56784708803052 -0.29108188972924154 101.21127657435059 H 0.0 **** 0.06
25710 H 34.26502796195161 0.41328983795449403 100.22464816284241 H 0.0 **** 0.06
25711 C 97.56559057454348 112.03162229938022 48.99882400256206 C 0.0 **** -0.24
25712 H 97.44152590678877 111.81236571150038 47.93765127564018 H 0.0 **** 0.06
25713 H 98.30830084641804 112.82048687797555 49.12211696033725 H 0.0 **** 0.06
25714 H 97.90032592215161 111.13284421115384 49.51774906486065 H 0.0 **** 0.06
25715 H 96.61379201021205 112.35861037179194 49.41518340031632 H 0.0 **** 0.06
25716 C 79.88411284720306 40.102483838418486 111.47650914965676 C 0.0 **** -0.24
25717 H 80.28485858328233 39.19546524870392 111.9290951623323 H 0.0 **** 0.06
25718 H 80.63612270312535 40.89112343919798 111.51739658482157 H 0.0 **** 0.06
25719 H 78.99588177153865 40.41797852653617 112.02310458894074 H 0.0 **** 0.06
25720 H 79.62095464894878 39.90514497776103 110.43748119865062 H 0.0 **** 0.06
25721 C 64.68680771330907 19.66199419140159 72.70385601121782 C 0.0 **** -0.24
25722 H 64.94830573614695 18.837270004525738 72.04063373848447 H 0.0 **** 0.06
25723 H 65.51679960401401 19.86065531874949 73.38243189102388 H 0.0 **** 0.06
25724 H 63.80154548185056 19.395569403472624 73.28171292041318 H 0.0 **** 0.06
25725 H 64.47889484027644 20.552720866705645 72.11088788392979 H 0.0 **** 0.06
25726 C 109.44521266322565 112.98420133738946 41.23315090525733 C 0.0 **** -0.24
25727 H 109.3259427723104 114.0455598387751 41.45108391264347 H 0.0 **** 0.06
25728 H 109.97314055805609 112.8650866157083 40.28619637929205 H 0.0 **** 0.06
25729 H 108.46428336630947 112.51518926648463 41.16419229325771 H 0.0 **** 0.06
25730 H 110.0186981504122 112.51255778399745 42.03119208567284 H 0.0 **** 0.06
25731 C 13.484414652678083 65.10181748896451 49.441396065236574 C 0.0 **** -0.24
25732 H 14.317578129880275 64.69903074859633 50.01782512435864 H 0.0 **** 0.06
25733 H 13.86696652852936 65.7702428641131 48.669699507365635 H 0.0 **** 0.06
25734 H 12.817754994290112 65.65363349023764 50.10329477694597 H 0.0 **** 0.06
25735 H 12.936616259920129 64.28379281872913 48.97445765682562 H 0.0 **** 0.06
25736 C 109.50138914172399 77.65710428396397 73.50003340742197 C 0.0 **** -0.24
25737 H 110.16119781905368 78.37638141906456 73.01492117922433 H 0.0 **** 0.06
25738 H 108.96734289876812 77.08438418642464 72.74011471720686 H 0.0 **** 0.06
25739 H 108.78416403705498 78.18666786303197 74.12687111466411 H 0.0 **** 0.06
25740 H 110.09245682748801 76.97993151600934 74.11690861291811 H 0.0 **** 0.06
25741 C 88.04996840542492 52.698430652276016 75.04094247240516 C 0.0 **** -0.24
25742 H 88.72399240795369 52.72970648200521 75.8964302725746 H 0.0 **** 0.06
25743 H 87.0173288431588 52.699711427690005 75.39139492409083 H 0.0 **** 0.06
25744 H 88.2365278709716 51.791007211003574 74.4642619847323 H 0.0 **** 0.06
25745 H 88.22194226657712 53.57049303899391 74.41062024708185 H 0.0 **** 0.06
25746 C 54.809806697826076 104.76753523220651 56.92631122754827 C 0.0 **** -0.24
25747 H 55.52285735947018 104.40183447738562 56.18642490882198 H 0.0 **** 0.06
25748 H 54.593721385876194 103.97579003466203 57.64434723290515 H 0.0 **** 0.06
25749 H 53.888056296402766 105.06596340083019 56.42629640227554 H 0.0 **** 0.06
25750 H 55.234999842722715 105.62465389654659 57.447068622665995 H 0.0 **** 0.06
25751 C 105.8638982523201 72.91037968593295 61.03761523965923 C 0.0 **** -0.24
25752 H 106.0701050706515 73.75431697167573 61.69647077314855 H 0.0 **** 0.06
25753 H 106.74823210757361 72.27604482859104 60.97309458569663 H 0.0 **** 0.06
25754 H 105.6071678531741 73.27905267700422 60.04490246799725 H 0.0 **** 0.06
25755 H 105.03006360701659 72.33291676517615 61.4383038892891 H 0.0 **** 0.06
25756 C 88.2233972155858 78.13701142104296 64.87894839200953 C 0.0 **** -0.24
25757 H 88.61150103954753 77.35706616628005 64.22403712175986 H 0.0 **** 0.06
25758 H 88.70148561434235 78.06213834991215 65.85585601091634 H 0.0 **** 0.06
25759 H 87.14572420004379 78.01422442131741 64.99061860894255 H 0.0 **** 0.06
25760 H 88.43386163786806 79.11410663250624 64.44444105857329 H 0.0 **** 0.06
25761 C 87.69328983242323 74.42956472718495 38.416646498147884 C 0.0 **** -0.24
25762 H 88.48687809473057 73.92821553305527 37.86300889613261 H 0.0 **** 0.06
25763 H 88.05778593845679 75.39015620018921 38.78236585506261 H 0.0 **** 0.06
25764 H 87.39185121855724 73.8096616560569 39.260869747981076 H 0.0 **** 0.06
25765 H 86.8377697626475 74.59146559533082 37.760783330362074 H 0.0 **** 0.06
25766 C 14.769595982513238 46.780693969874164 77.34569564716924 C 0.0 **** -0.24
25767 H 14.566687581150404 45.71302707360337 77.43226684445366 H 0.0 **** 0.06
25768 H 14.113390910358078 47.3315782795496 78.01986207585514 H 0.0 **** 0.06
25769 H 14.590816425274681 47.10298429852162 76.32039875400218 H 0.0 **** 0.06
25770 H 15.809509456848843 46.97540339230147 77.61118815473353 H 0.0 **** 0.06
25771 C 10.772876606963766 42.14983550501478 35.35585264766266 C 0.0 **** -0.24
25772 H 10.290409473168655 43.016020120475105 35.8089306268547 H 0.0 **** 0.06
25773 H 10.922639947139974 41.37982926873627 36.11300806996479 H 0.0 **** 0.06
25774 H 11.736249598258183 42.44593831231353 34.942010274081866 H 0.0 **** 0.06
25775 H 10.140146268516759 41.75880624943015 34.55903183369655 H 0.0 **** 0.06
25776 C 15.3311588376651 83.01390593147335 59.020775805462485 C 0.0 **** -0.24
25777 H 15.71125133226721 82.40369289584476 58.201539755996656 H 0.0 **** 0.06
25778 H 15.180797982668878 84.03624664141572 58.67244677920049 H 0.0 **** 0.06
25779 H 16.051596923072026 83.01120140309715 59.83874195155796 H 0.0 **** 0.06
25780 H 14.38387367491373 82.60527843513916 59.37015848357904 H 0.0 **** 0.06
25781 C 109.21157678357358 95.72607691723516 71.79011894810054 C 0.0 **** -0.24
25782 H 109.43720715691492 96.6965721731649 72.23299241176741 H 0.0 **** 0.06
25783 H 108.5867508792085 95.8668244466815 70.90739942105768 H 0.0 **** 0.06
25784 H 108.68204969514315 95.10979784622322 72.51619614302655 H 0.0 **** 0.06
25785 H 110.14026058791714 95.23350168469005 71.50334560230525 H 0.0 **** 0.06
25786 C 47.80776021692793 97.09493966620195 75.61256512039552 C 0.0 **** -0.24
25787 H 48.80113716808884 97.54540833482523 75.61308537172243 H 0.0 **** 0.06
25788 H 47.053519632279006 97.88097949795818 75.55866170620516 H 0.0 **** 0.06
25789 H 47.670025129598685 96.52095769601999 76.52910684368084 H 0.0 **** 0.06
25790 H 47.70860352678267 96.4345206197001 74.75153285845306 H 0.0 **** 0.06
25791 C 43.42531559813589 90.85222760516268 44.353133472510706 C 0.0 **** -0.24
25792 H 43.28105766032069 91.4100134101046 45.278552632682874 H 0.0 **** 0.06
25793 H 42.520966769159116 90.28758737756351 44.125105828001836 H 0.0 **** 0.06
25794 H 44.26370773337698 90.16482759041477 44.47001747238539 H 0.0 **** 0.06
25795 H 43.636107044595505 91.54699836586843 43.54004151555205 H 0.0 **** 0.06
25796 C 96.66913499685418 36.77865794194864 64.45567386862223 C 0.0 **** -0.24
25797 H 96.7926819739771 37.799171862679955 64.09276001426298 H 0.0 **** 0.06
25798 H 96.18975710697873 36.796690582394106 65.43430792350148 H 0.0 **** 0.06
25799 H 97.64621801761743 36.302348533888306 64.538843006293 H 0.0 **** 0.06
25800 H 96.04874674071962 36.216525737874605 63.757277281569884 H 0.0 **** 0.06
25801 C 77.76206569656475 23.77775091716812 81.28327749117014 C 0.0 **** -0.24
25802 H 77.7921725679324 24.078700947042776 80.23602889262389 H 0.0 **** 0.06
25803 H 78.43427041063623 24.411795957581916 81.86248362625167 H 0.0 **** 0.06
25804 H 78.07662484459453 22.738250257141488 81.37248426546469 H 0.0 **** 0.06
25805 H 76.74556617455406 23.88360360737167 81.66233144277356 H 0.0 **** 0.06
25806 C 83.79241313835678 19.520677002582648 15.412549935952256 C 0.0 **** -0.24
25807 H 83.76480449856456 20.52859906237202 15.82754860530207 H 0.0 **** 0.06
25808 H 84.72833209066411 19.376637743081456 14.872415331314727 H 0.0 **** 0.06
25809 H 82.95368231661226 19.38610205108537 14.73053301789784 H 0.0 **** 0.06
25810 H 83.72391619961132 18.793827634725563 16.222107931132513 H 0.0 **** 0.06
25811 C 82.35742953054586 75.7080757279968 33.54510147061487 C 0.0 **** -0.24
25812 H 82.69954013311585 76.55410199106615 32.949484285176965 H 0.0 **** 0.06
25813 H 81.44639018778724 75.29995270266227 33.10561771628281 H 0.0 **** 0.06
25814 H 82.15341512151198 76.0396618263662 34.56337636768953 H 0.0 **** 0.06
25815 H 83.12901734796836 74.93892529514065 33.56170765790151 H 0.0 **** 0.06
25816 C 53.9753683463647 59.03577712825063 94.46128048714439 C 0.0 **** -0.24
25817 H 54.97010031610713 59.256296488014016 94.07449571031555 H 0.0 **** 0.06
25818 H 53.74173208451997 57.98567522077275 94.28339261463407 H 0.0 **** 0.06
25819 H 53.242181162961515 59.662527452478 93.95384523319348 H 0.0 **** 0.06
25820 H 53.94843128188477 59.238811793303995 95.5319687225147 H 0.0 **** 0.06
25821 C 72.32458196823151 66.01481805955791 98.62417974788008 C 0.0 **** -0.24
25822 H 73.12384767417564 66.4169802124008 98.00227311948817 H 0.0 **** 0.06
25823 H 72.21915402707742 66.6278712358357 99.52022707865962 H 0.0 **** 0.06
25824 H 72.56814861089225 64.99185130211731 98.91079492411458 H 0.0 **** 0.06
25825 H 71.38936742405562 66.02384700876871 98.0646780237984 H 0.0 **** 0.06
25826 C 15.322163393581487 51.29287326772095 106.57982953343517 C 0.0 **** -0.24
25827 H 15.228862125211357 52.04673458806357 105.79786535893632 H 0.0 **** 0.06
25828 H 15.252955835673223 51.77272691235328 107.5565945092321 H 0.0 **** 0.06
25829 H 16.28582708364081 50.791870599410316 106.48857397518256 H 0.0 **** 0.06
25830 H 14.520026950716613 50.561176827229616 106.47635251676007 H 0.0 **** 0.06
25831 C 101.31107257896886 84.23483302477626 83.92836176418581 C 0.0 **** -0.24
25832 H 102.07249140939018 84.49345516847978 84.66423805811237 H 0.0 **** 0.06
25833 H 100.55434676669896 85.01927526680896 83.89845483769685 H 0.0 **** 0.06
25834 H 100.84495711621514 83.28979049618641 84.20436333928757 H 0.0 **** 0.06
25835 H 101.77440160387803 84.13796187489402 82.94618805435027 H 0.0 **** 0.06
25836 C 114.9418899365721 105.07163857190866 73.25096801753821 C 0.0 **** -0.24
25837 H 114.34113494852045 105.49568634304308 74.05674714839637 H 0.0 **** 0.06
25838 H 114.72052486292756 104.00796466974487 73.15544115132903 H 0.0 **** 0.06
25839 H 115.9997512871493 105.20458948596507 73.47814063314493 H 0.0 **** 0.06
25840 H 114.70407426397321 105.57888453268944 72.31606738414987 H 0.0 **** 0.06
25841 C 30.71006771548801 92.12570713204735 84.55155543212393 C 0.0 **** -0.24
25842 H 30.536635044060773 93.16528907725109 84.8296012087875 H 0.0 **** 0.06
25843 H 30.146332518669112 91.89189224000211 83.64852654040999 H 0.0 **** 0.06
25844 H 30.383228522520454 91.47452435685716 85.36245192287299 H 0.0 **** 0.06
25845 H 31.772959588917303 91.97070115204437 84.36753383174226 H 0.0 **** 0.06
25846 C 27.555339445885977 86.57794105229615 115.2775044353906 C 0.0 **** -0.24
25847 H 26.560126883794453 86.47864397131332 115.71046978246036 H 0.0 **** 0.06
25848 H 27.63145013688677 87.53410000446809 114.75883282314577 H 0.0 **** 0.06
25849 H 27.727333337574578 85.76659571830766 114.57139770154319 H 0.0 **** 0.06
25850 H 28.302257229885697 86.53480848936982 116.06984737843695 H 0.0 **** 0.06
25851 C 18.56748132367983 61.545137548392255 109.43910137089131 C 0.0 **** -0.24
25852 H 19.45639171906666 62.172643831317764 109.4997735257399 H 0.0 **** 0.06
25853 H 18.01431242063576 61.607508580621875 110.37588039815392 H 0.0 **** 0.06
25854 H 18.865804707790318 60.51166664577213 109.25975789526228 H 0.0 **** 0.06
25855 H 17.9356629230129 61.88834817234113 108.62009531381784 H 0.0 **** 0.06
25856 C 108.27599740392063 43.57952221724446 59.508323878124706 C 0.0 **** -0.24
25857 H 107.59799613375546 44.03944716462914 58.7891957248959 H 0.0 **** 0.06
25858 H 107.77594201087666 43.48823484825692 60.47260661302517 H 0.0 **** 0.06
25859 H 109.16517751814293 44.2015977820688 59.61764343988299 H 0.0 **** 0.06
25860 H 108.56538616599255 42.5910098473 59.152903910695635 H 0.0 **** 0.06
25861 C 18.80436087388648 30.352711741387452 102.44297874828533 C 0.0 **** -0.24
25862 H 19.89116089290269 30.403820190370766 102.36603265544255 H 0.0 **** 0.06
25863 H 18.45030671547795 31.13611078726359 103.11336041198416 H 0.0 **** 0.06
25864 H 18.514378522246545 29.377920993000146 102.83637200413074 H 0.0 **** 0.06
25865 H 18.364713417135818 30.491527923572903 101.45577760873664 H 0.0 **** 0.06
25866 C 74.29866346208959 92.50516693089074 49.0539140404579 C 0.0 **** -0.24
25867 H 74.42104617257581 93.12197939558908 48.16431033825478 H 0.0 **** 0.06
25868 H 75.09678527768219 91.76266704350007 49.09261221394567 H 0.0 **** 0.06
25869 H 73.33392211071867 91.99998140023672 49.01517605739201 H 0.0 **** 0.06
25870 H 74.34444188491207 93.13572827270323 49.94167959494294 H 0.0 **** 0.06
25871 C 105.71602506530539 1.691395725412928 19.37525808611639 C 0.0 **** -0.24
25872 H 104.69117440294542 2.0268274218298785 19.209156319482645 H 0.0 **** 0.06
25873 H 105.96291349931758 1.7920611514547762 20.43227585048281 H 0.0 **** 0.06
25874 H 106.39763083418461 2.301154289935278 18.782441910668894 H 0.0 **** 0.06
25875 H 105.80903235497217 0.6468634316790816 19.076978134433205 H 0.0 **** 0.06
25876 C 82.57198802762099 0.8109012972415144 110.77218434959582 C 0.0 **** -0.24
25877 H 83.14104523678802 -0.020271049898042293 110.35495009240627 H 0.0 **** 0.06
25878 H 81.56808160275429 0.4712995526471673 111.02810141095608 H 0.0 **** 0.06
25879 H 82.50921092951327 1.6133907111296253 110.03732672206458 H 0.0 **** 0.06
25880 H 83.07235319716841 1.1778780720149484 111.6692472266092 H 0.0 **** 0.06
25881 C 89.79349619188281 46.07295256656232 49.042325595080996 C 0.0 **** -0.24
25882 H 90.59210615219152 46.26316776885483 48.32572093603392 H 0.0 **** 0.06
25883 H 89.02911093470703 46.84512247139298 48.94781707198209 H 0.0 **** 0.06
25884 H 90.20115196904547 46.087540219803486 50.052922898561945 H 0.0 **** 0.06
25885 H 89.35129757978066 45.096867394691344 48.84317469569825 H 0.0 **** 0.06
25886 C 21.1384719656088 43.229372933544916 37.012107294464236 C 0.0 **** -0.24
25887 H 21.135888605505045 42.5963742326992 37.89903225826296 H 0.0 **** 0.06
25888 H 20.14007339848814 43.636486001264316 36.85350971306703 H 0.0 **** 0.06
25889 H 21.433018327159175 42.637976478552815 36.144472170351655 H 0.0 **** 0.06
25890 H 21.846451469866906 44.04586989250376 37.15141507161201 H 0.0 **** 0.06
25891 C 77.88787794934152 66.67538682614676 63.99229669336407 C 0.0 **** -0.24
25892 H 77.71495483510546 66.4395835254509 65.04203205398676 H 0.0 **** 0.06
25893 H 78.48919361954296 65.88815297495472 63.53793750318425 H 0.0 **** 0.06
25894 H 78.41518350278992 67.62584892505103 63.91620749677725 H 0.0 **** 0.06
25895 H 76.93160630005198 66.747078265374 63.473953326862954 H 0.0 **** 0.06
25896 C 6.830430197737101 64.53230280966815 5.74841175784718 C 0.0 **** -0.24
25897 H 6.656381401763809 64.14742384225747 6.753418814202931 H 0.0 **** 0.06
25898 H 6.714000891288691 63.7246746683553 5.025687073066379 H 0.0 **** 0.06
25899 H 7.8419132091560755 64.934578234571 5.683614963276227 H 0.0 **** 0.06
25900 H 6.111179920538291 65.32148549085429 5.531832354653531 H 0.0 **** 0.06
25901 C 50.63173438142735 89.37669045915246 112.67023541119153 C 0.0 **** -0.24
25902 H 49.745167920942265 89.84425602584989 113.09867948207226 H 0.0 **** 0.06
25903 H 50.87684815404913 89.86290139003376 111.72542421563664 H 0.0 **** 0.06
25904 H 50.4361073923335 88.31920664375957 112.49541845384634 H 0.0 **** 0.06
25905 H 51.46711943125683 89.4830644358199 113.36128626424198 H 0.0 **** 0.06
25906 C 86.86981239470634 76.8308560075487 51.83841971289445 C 0.0 **** -0.24
25907 H 85.91170218387037 76.40368645205018 52.133650015256194 H 0.0 **** 0.06
25908 H 86.97678978590872 76.76967690270942 50.754910606948215 H 0.0 **** 0.06
25909 H 87.67770043307848 76.27454615694447 52.314997410427 H 0.0 **** 0.06
25910 H 86.91458944117562 77.87394842227567 52.149673833233635 H 0.0 **** 0.06
25911 C 90.3917460428662 85.70027744972174 105.12532605422021 C 0.0 **** -0.24
25912 H 89.34787574387093 85.52406888805734 105.38379321486806 H 0.0 **** 0.06
25913 H 90.53932783528285 85.50976657801903 104.06141003438043 H 0.0 **** 0.06
25914 H 91.02847839059558 85.03254239463661 105.70543187430852 H 0.0 **** 0.06
25915 H 90.65071398086462 86.73535092655965 105.34797255591269 H 0.0 **** 0.06
25916 C 96.16889782936576 32.60441628162835 91.35603967177721 C 0.0 **** -0.24
25917 H 95.33193958015752 33.288812345953424 91.49041531995476 H 0.0 **** 0.06
25918 H 97.10500979156947 33.135252588789044 91.5353307715549 H 0.0 **** 0.06
25919 H 96.16053475689773 32.21531557778568 90.33830659425868 H 0.0 **** 0.06
25920 H 96.07953233333916 31.77857766883831 92.06180405088458 H 0.0 **** 0.06
25921 C 91.83345045750053 84.96974751115167 1.7556166541895948 C 0.0 **** -0.24
25922 H 92.797652148508 84.58529059636936 2.090007166983213 H 0.0 **** 0.06
25923 H 91.11073971977254 84.15452180478849 1.7174300387882226 H 0.0 **** 0.06
25924 H 91.94194907381706 85.40803464464801 0.7635161523260194 H 0.0 **** 0.06
25925 H 91.4855258947683 85.73189601297037 2.4539970772658535 H 0.0 **** 0.06
25926 C 39.32511921455077 3.529097996965163 10.99718213554199 C 0.0 **** -0.24
25927 H 39.2518037023286 4.059172489625311 11.945891118590453 H 0.0 **** 0.06
25928 H 38.413150502931174 3.6874572880915935 10.421176584337772 H 0.0 **** 0.06
25929 H 39.455207435080425 2.4630619429160276 11.18527038137718 H 0.0 **** 0.06
25930 H 40.17925335701523 3.9062998335438692 10.435546526286842 H 0.0 **** 0.06
25931 C 35.002201417856185 38.915378950845025 88.92224654530816 C 0.0 **** -0.24
25932 H 35.6111269559575 39.1065809640279 88.03922537634867 H 0.0 **** 0.06
25933 H 34.42416697030478 38.00283740810812 88.77368637802942 H 0.0 **** 0.06
25934 H 34.324985985541076 39.75353475408326 89.08547967234745 H 0.0 **** 0.06
25935 H 35.65023593958978 38.79724447884945 89.79117607020248 H 0.0 **** 0.06
25936 C 66.90217360619229 110.22357500571593 7.09060672085397 C 0.0 **** -0.24
25937 H 66.5974932539246 109.20600360012907 7.3334034099101615 H 0.0 **** 0.06
25938 H 66.43552063424272 110.91965341971533 7.787450891246294 H 0.0 **** 0.06
25939 H 66.59040389749958 110.46335566276483 6.073611194231404 H 0.0 **** 0.06
25940 H 67.98672455211764 110.30630805218348 7.166596842204086 H 0.0 **** 0.06
25941 C 113.86315077280364 37.61982773187947 15.230788227935335 C 0.0 **** -0.24
25942 H 114.63370343494478 37.97368406039942 15.916169358656134 H 0.0 **** 0.06
25943 H 114.30430606692704 37.44255684071811 14.250031890895912 H 0.0 **** 0.06
25944 H 113.07857537451957 38.3710136988538 15.147170174305614 H 0.0 **** 0.06
25945 H 113.43807568819085 36.69097089944006 15.611390560152273 H 0.0 **** 0.06
25946 C 116.42192225321864 8.393306278847461 20.302628711085305 C 0.0 **** -0.24
25947 H 116.79097761568904 9.370667303043774 19.991651966876276 H 0.0 **** 0.06
25948 H 117.2173269743221 7.8510449924098396 20.812439368355513 H 0.0 **** 0.06
25949 H 116.10179526569375 7.83056286670427 19.425945468466523 H 0.0 **** 0.06
25950 H 115.5770069411391 8.522994803439559 20.979785290780512 H 0.0 **** 0.06
25951 C 110.75076195836635 12.098440685825011 2.8086441822909194 C 0.0 **** -0.24
25952 H 111.00067683412726 11.353425956482845 2.054074435849344 H 0.0 **** 0.06
25953 H 111.05291032697937 11.736490750413541 3.7915585180402047 H 0.0 **** 0.06
25954 H 109.67549339191612 12.277200604345978 2.8008100536356153 H 0.0 **** 0.06
25955 H 111.27499330319552 13.028633529698524 2.587136177964453 H 0.0 **** 0.06
25956 C 63.318195536149915 19.445802526420778 27.40812306498603 C 0.0 **** -0.24
25957 H 63.566495342005 20.11313635963502 26.583463337768166 H 0.0 **** 0.06
25958 H 64.23524149048058 19.105695466728058 27.88987497972238 H 0.0 **** 0.06
25959 H 62.766544049255174 18.586594730306288 27.026987198011255 H 0.0 **** 0.06
25960 H 62.702340907045766 19.97879074246199 28.133689534158037 H 0.0 **** 0.06
25961 C 41.6345139664425 44.59121902264684 65.74576244010314 C 0.0 **** -0.24
25962 H 40.71363645428481 44.20752961530792 65.3065437996762 H 0.0 **** 0.06
25963 H 42.29851195886333 44.93790108908263 64.95367393595092 H 0.0 **** 0.06
25964 H 42.12488794413139 43.79869035456184 66.31091253472039 H 0.0 **** 0.06
25965 H 41.399835016756654 45.421130769697214 66.41259470583827 H 0.0 **** 0.06
25966 C 5.924449708433627 97.59686322145853 32.37979332021764 C 0.0 **** -0.24
25967 H 5.113245794614343 97.6808695183773 31.65639499588964 H 0.0 **** 0.06
25968 H 6.525867543328701 98.5059020190318 32.35783784539741 H 0.0 **** 0.06
25969 H 6.550015895845348 96.74145487897556 32.125654674240096 H 0.0 **** 0.06
25970 H 5.507909914522301 97.45860335695556 33.37704189431827 H 0.0 **** 0.06
25971 C 7.040020709074623 100.20982710031868 61.86251784338276 C 0.0 **** -0.24
25972 H 7.916865825331232 100.85448557271513 61.80112511060554 H 0.0 **** 0.06
25973 H 6.457402738374871 100.47409946457483 62.74548241224085 H 0.0 **** 0.06
25974 H 7.357423237548968 99.16956206179711 61.9329041713529 H 0.0 **** 0.06
25975 H 6.428930034411142 100.3434041893452 60.96973549174368 H 0.0 **** 0.06
25976 C 30.775989685722934 77.34456924083872 76.47342405086584 C 0.0 **** -0.24
25977 H 30.799270611994963 76.54572836155307 77.21388279210049 H 0.0 **** 0.06
25978 H 29.754268814642415 77.70785185414223 76.36215330264528 H 0.0 **** 0.06
25979 H 31.133888951256175 76.96399321093003 75.51695766543156 H 0.0 **** 0.06
25980 H 31.41777927970994 78.16224475259213 76.80213952853296 H 0.0 **** 0.06
25981 C 93.1209576989194 87.74995150800655 101.58114351040135 C 0.0 **** -0.24
25982 H 93.69829349320844 88.65824444848184 101.7560787194231 H 0.0 **** 0.06
25983 H 92.37338105982263 87.63716953903901 102.36546122830924 H 0.0 **** 0.06
25984 H 93.7888715891751 86.88891144739898 101.58799786684938 H 0.0 **** 0.06
25985 H 92.62484354148711 87.81684692720219 100.61244708647621 H 0.0 **** 0.06
25986 C 74.70706306931208 57.83050642626631 16.128288780802393 C 0.0 **** -0.24
25987 H 74.30360327329615 57.42878728845446 15.1996027163556 H 0.0 **** 0.06
25988 H 74.02455346113766 57.60548460399343 16.947928206917396 H 0.0 **** 0.06
25989 H 74.82119951521437 58.911510984664375 16.036478686416103 H 0.0 **** 0.06
25990 H 75.67805134205878 57.37846464485901 16.32761237935449 H 0.0 **** 0.06
25991 C 21.725882371874235 13.783065175322406 7.362223074392048 C 0.0 **** -0.24
25992 H 20.95470806201081 14.256807146213816 6.754656037479052 H 0.0 **** 0.06
25993 H 22.341359534454227 14.551113726408119 7.830909821362269 H 0.0 **** 0.06
25994 H 22.350171529221512 13.153075068244789 6.72806653413663 H 0.0 **** 0.06
25995 H 21.256473876166353 13.172334626508444 8.132398206099765 H 0.0 **** 0.06
25996 C 52.011486604774646 96.04239372630124 84.51450940528565 C 0.0 **** -0.24
25997 H 52.400201096969774 95.10530964345304 84.11677407767729 H 0.0 **** 0.06
25998 H 50.975668938236346 96.17042624235734 84.19786530346971 H 0.0 **** 0.06
25999 H 52.61073546477588 96.87214972175579 84.13907261583546 H 0.0 **** 0.06
26000 H 52.05888258037493 96.02252125682935 85.60327782379619 H 0.0 **** 0.06
26001 C 107.16122384600905 109.69796119631076 67.40874186430369 C 0.0 **** -0.24
26002 H 108.1209323914751 109.18322440324772 67.35915832622769 H 0.0 **** 0.06
26003 H 107.27097210065315 110.70960011697213 67.01614274746004 H 0.0 **** 0.06
26004 H 106.82669076703598 109.74434199956954 68.44494955936116 H 0.0 **** 0.06
26005 H 106.42701837003054 109.15419248811219 66.81421862509248 H 0.0 **** 0.06
26006 C 37.76425560191967 101.19618549794663 26.672980784022712 C 0.0 **** -0.24
26007 H 36.833778611673154 100.6820293417056 26.91614955454989 H 0.0 **** 0.06
26008 H 38.20111392071004 101.60701909265083 27.583209620396417 H 0.0 **** 0.06
26009 H 37.56023254753114 102.00411757227317 25.970799693951903 H 0.0 **** 0.06
26010 H 38.46170829000795 100.4906554558518 26.22142228974461 H 0.0 **** 0.06
26011 C 74.91700597521603 12.515315343262415 21.011270361927217 C 0.0 **** -0.24
26012 H 75.23013266216842 11.513501823750616 20.718080511469566 H 0.0 **** 0.06
26013 H 73.95601560510735 12.743676122674259 20.549846635843863 H 0.0 **** 0.06
26014 H 75.66117277510298 13.239254895225997 20.68187976732699 H 0.0 **** 0.06
26015 H 74.81922535895427 12.561560319388718 22.095644046317716 H 0.0 **** 0.06
26016 C 28.308393690570874 21.209746254961516 62.83867173956679 C 0.0 **** -0.24
26017 H 28.671120397458857 21.743288159473536 63.716767002217864 H 0.0 **** 0.06
26018 H 28.17285464998396 21.912101002450072 62.0166663261557 H 0.0 **** 0.06
26019 H 27.355474010061563 20.732902380725022 63.07125086628156 H 0.0 **** 0.06
26020 H 29.03461781697866 20.448966502337555 62.55166881634753 H 0.0 **** 0.06
26021 C 17.680713790625788 10.254639467360917 10.660305766831566 C 0.0 **** -0.24
26022 H 16.964771346093784 9.628740153210885 11.194702187533125 H 0.0 **** 0.06
26023 H 17.58373782228597 10.082081394013102 9.588528119317306 H 0.0 **** 0.06
26024 H 18.69196818398987 10.003721316022208 10.979504079083878 H 0.0 **** 0.06
26025 H 17.47965430420109 11.303782557480531 10.879725211002196 H 0.0 **** 0.06
26026 C 21.389921940846648 78.33653109887567 88.82366126909872 C 0.0 **** -0.24
26027 H 21.77204331713625 77.44807340084375 89.32712942250106 H 0.0 **** 0.06
26028 H 22.223041707003205 78.98733159012264 88.55334794749908 H 0.0 **** 0.06
26029 H 20.714046061016774 78.87002900763531 89.4925893575936 H 0.0 **** 0.06
26030 H 20.852058325326226 78.04175387200513 87.92319526716699 H 0.0 **** 0.06
26031 C 102.48510024598087 96.70965677262271 18.862809187332203 C 0.0 **** -0.24
26032 H 102.63240745940118 97.78615703671599 18.943831865323233 H 0.0 **** 0.06
26033 H 102.35867147359266 96.43775687550252 17.814499967180467 H 0.0 **** 0.06
26034 H 101.5953216202735 96.42223492235198 19.422992767676078 H 0.0 **** 0.06
26035 H 103.35400043065619 96.19247825592032 19.26991214914915 H 0.0 **** 0.06
26036 C 8.507408077611558 102.98070408731024 80.80016693688725 C 0.0 **** -0.24
26037 H 9.319650602762962 102.73429387994477 80.1160711284777 H 0.0 **** 0.06
26038 H 8.898548510674445 103.56648709405226 81.63176381743313 H 0.0 **** 0.06
26039 H 8.062584020087968 102.06150108039012 81.18051850908881 H 0.0 **** 0.06
26040 H 7.75074994100369 103.55942963473356 80.27123393602477 H 0.0 **** 0.06
26041 C 13.72359040290521 56.41598742629137 115.82003976249207 C 0.0 **** -0.24
26042 H 13.074223690602736 55.61423348934549 115.4689508245333 H 0.0 **** 0.06
26043 H 13.11843288516721 57.28565328155093 116.07708581572251 H 0.0 **** 0.06
26044 H 14.428396198986182 56.68378364137616 115.03357496489149 H 0.0 **** 0.06
26045 H 14.27091686850773 56.08069383655445 116.70087453690418 H 0.0 **** 0.06
26046 C 41.506680147955144 22.772154540857855 80.71914489355714 C 0.0 **** -0.24
26047 H 40.86792469963154 23.60488512218768 80.42303295334824 H 0.0 **** 0.06
26048 H 41.61611801008674 22.08244711212481 79.88120331922153 H 0.0 **** 0.06
26049 H 41.054350615641454 22.250343464745157 81.56276458762017 H 0.0 **** 0.06
26050 H 42.48620207724019 23.151222337414424 81.00894190001026 H 0.0 **** 0.06
26051 C 12.903498449193663 101.88686619687604 19.716161817107093 C 0.0 **** -0.24
26052 H 11.927151001236787 101.87850995938476 19.23336713871973 H 0.0 **** 0.06
26053 H 12.915929744241321 101.15503551075716 20.524312989714986 H 0.0 **** 0.06
26054 H 13.100064375807857 102.87926347625017 20.122308910659 H 0.0 **** 0.06
26055 H 13.672000187028104 101.63525032023597 18.985807485570774 H 0.0 **** 0.06
26056 C 33.19189875077919 26.5399809882843 0.5024574105651709 C 0.0 **** -0.24
26057 H 32.88898356326061 27.586253676601984 0.5353022349181913 H 0.0 **** 0.06
26058 H 34.18230986660734 26.434609503552053 0.9469995638943374 H 0.0 **** 0.06
26059 H 33.22076005673395 26.201900316260435 -0.5338371922404974 H 0.0 **** 0.06
26060 H 32.476933393216626 25.93704131802025 1.061585492750396 H 0.0 **** 0.06
26061 C 75.37888693411682 36.538293191381484 69.05659773668708 C 0.0 **** -0.24
26062 H 75.16956198245845 36.79696466751727 68.01816856092239 H 0.0 **** 0.06
26063 H 76.40123038167033 36.82730821962798 69.30317680327437 H 0.0 **** 0.06
26064 H 75.26142298473846 35.46353954310547 69.19440110619223 H 0.0 **** 0.06
26065 H 74.68392217222046 37.06679811474777 69.7090366099032 H 0.0 **** 0.06
26066 C 43.731354624059065 104.6508449083226 23.51795212993918 C 0.0 **** -0.24
26067 H 43.3271890575034 104.68736535663538 24.529596048124866 H 0.0 **** 0.06
26068 H 43.039324091611434 105.14068684234826 22.83186272447269 H 0.0 **** 0.06
26069 H 43.86643668149566 103.6116470399379 23.21710561198274 H 0.0 **** 0.06
26070 H 44.69242101506791 105.16478176079602 23.49190813533848 H 0.0 **** 0.06
26071 C 57.54796429884897 67.04088884568824 109.13915976368192 C 0.0 **** -0.24
26072 H 57.35469593483043 66.05732979032058 109.56600496015412 H 0.0 **** 0.06
26073 H 58.30597860492361 67.55193175545801 109.73309195245432 H 0.0 **** 0.06
26074 H 56.62832101428296 67.6255961742165 109.1435765379762 H 0.0 **** 0.06
26075 H 57.902429594155194 66.92939750878244 108.11453447038892 H 0.0 **** 0.06
26076 C 37.73528768957566 56.071736317949295 76.91567050392516 C 0.0 **** -0.24
26077 H 38.58944545055093 55.870816663742936 77.56248020518657 H 0.0 **** 0.06
26078 H 36.893649566804896 56.40945752332127 77.52038251977746 H 0.0 **** 0.06
26079 H 37.46021206579067 55.16150529710337 76.38427727290869 H 0.0 **** 0.06
26080 H 37.99943016324511 56.846718790250996 76.19580946623535 H 0.0 **** 0.06
26081 C 27.354377257373216 45.98262462246339 45.212389803952135 C 0.0 **** -0.24
26082 H 28.11240901557119 46.63909345783301 44.78534006761663 H 0.0 **** 0.06
26083 H 27.49891287017755 45.915981874357556 46.29205009039214 H 0.0 **** 0.06
26084 H 27.443887585521054 44.990268359508434 44.772086693030744 H 0.0 **** 0.06
26085 H 26.363974969145147 46.38674133709253 45.002666274411624 H 0.0 **** 0.06
26086 C 34.29492628748119 0.19820846531280267 109.04280726250524 C 0.0 **** -0.24
26087 H 34.538362301644085 -0.8500371818070676 108.86813338370192 H 0.0 **** 0.06
26088 H 34.95165663964471 0.6008406557626529 109.81335412918112 H 0.0 **** 0.06
26089 H 33.25818462259264 0.2802576614293173 109.36864862546814 H 0.0 **** 0.06
26090 H 34.43172109974344 0.7611142025673985 108.1187437609506 H 0.0 **** 0.06
26091 C 54.204541006248434 108.123204268146 83.97356309589489 C 0.0 **** -0.24
26092 H 53.89233248798391 107.1142537712357 83.70297164293146 H 0.0 **** 0.06
26093 H 53.70013129859072 108.84370443135154 83.32961796356784 H 0.0 **** 0.06
26094 H 55.28309217378609 108.21541161532477 83.84824305253 H 0.0 **** 0.06
26095 H 53.94120072516384 108.31744653313197 85.01328988912593 H 0.0 **** 0.06
26096 C 96.94149827461155 56.19743994454001 30.998642949727895 C 0.0 **** -0.24
26097 H 97.37000355308868 57.16859774324132 30.75118847806172 H 0.0 **** 0.06
26098 H 97.46485426594148 55.776738252541065 31.85706390655872 H 0.0 **** 0.06
26099 H 97.04474638891298 55.52726046095495 30.14485065049243 H 0.0 **** 0.06
26100 H 95.88489996409055 56.3180016011666 31.240026309134947 H 0.0 **** 0.06
26101 C 7.364691627805939 38.210897475811436 34.13159296318321 C 0.0 **** -0.24
26102 H 6.6348876167014055 38.44180560112468 34.908297264794385 H 0.0 **** 0.06
26103 H 6.903518013322014 38.33407245905894 33.15180381706921 H 0.0 **** 0.06
26104 H 7.704383202279587 37.181235020657034 34.247622629297666 H 0.0 **** 0.06
26105 H 8.215499514554665 38.886628869602845 34.22143179113459 H 0.0 **** 0.06
26106 C 41.57861911111763 38.08919599765457 57.55726748484159 C 0.0 **** -0.24
26107 H 41.56185137869693 37.54126383000394 58.49921606583774 H 0.0 **** 0.06
26108 H 40.89702658990299 38.93800536187257 57.618269960932366 H 0.0 **** 0.06
26109 H 41.26577432568614 37.42922019798442 56.74764405546887 H 0.0 **** 0.06
26110 H 42.58965568474855 38.446608808373085 57.363579444053585 H 0.0 **** 0.06
26111 C 14.223863473464746 17.66440811383775 87.35491424094582 C 0.0 **** -0.24
26112 H 15.190619277463782 17.73216072597134 87.85506805460128 H 0.0 **** 0.06
26113 H 14.323364077556448 18.008077112929474 86.32486265626957 H 0.0 **** 0.06
26114 H 13.500359067845778 18.2893999364414 87.87799792264278 H 0.0 **** 0.06
26115 H 13.882544669880588 16.62896200598359 87.36183028887797 H 0.0 **** 0.06
26116 C 84.80417666814932 86.4931223504584 50.419006405586316 C 0.0 **** -0.24
26117 H 85.20089576465799 87.384312600425 49.9328039209189 H 0.0 **** 0.06
26118 H 84.21861097467533 85.91805470535417 49.70086362168226 H 0.0 **** 0.06
26119 H 84.16863144462181 86.78787713184664 51.25341924793199 H 0.0 **** 0.06
26120 H 85.62882560514748 85.88288199782386 50.788212101239736 H 0.0 **** 0.06
26121 C 26.80300245248145 80.431461531454 51.102479840531736 C 0.0 **** -0.24
26122 H 26.60774135968103 79.40311390962867 50.797932216312326 H 0.0 **** 0.06
26123 H 26.97000973720543 80.4658482130028 52.178838544850585 H 0.0 **** 0.06
26124 H 25.94583627151934 81.05469119664383 50.84761146631012 H 0.0 **** 0.06
26125 H 27.687726246773593 80.80181776185754 50.58492499707906 H 0.0 **** 0.06
26126 C 11.263534460173872 95.54744603742313 95.07030427784477 C 0.0 **** -0.24
26127 H 11.528658011917344 94.78272624832974 95.80008923714576 H 0.0 **** 0.06
26128 H 11.76967565042682 95.340379930909 94.1270038310368 H 0.0 **** 0.06
26129 H 11.570694990255475 96.52516252838387 95.4410829410759 H 0.0 **** 0.06
26130 H 10.184239198358057 95.5404982179609 94.91258449608915 H 0.0 **** 0.06
26131 C 86.71980356265675 64.79496874282933 76.53700897181409 C 0.0 **** -0.24
26132 H 87.30809170025418 65.25258664454003 75.74210152673652 H 0.0 **** 0.06
26133 H 86.95221507960869 63.73106793162788 76.59479289658032 H 0.0 **** 0.06
26134 H 85.65841958496574 64.92336635085377 76.32222970756288 H 0.0 **** 0.06
26135 H 86.95949454329428 65.27226052302473 77.48699830571871 H 0.0 **** 0.06
26136 C 46.95738754362347 25.086519963074522 0.8331713519513073 C 0.0 **** -0.24
26137 H 47.241611917374144 26.07941564617721 1.1809293161788759 H 0.0 **** 0.06
26138 H 46.80963377535497 25.109217888032447 -0.24728812828826108 H 0.0 **** 0.06
26139 H 46.03092841435301 24.782632308816005 1.3200560601637648 H 0.0 **** 0.06
26140 H 47.74673365558175 24.376094364274593 1.0780144183793254 H 0.0 **** 0.06
26141 C 100.75306843650145 37.429442081997195 31.72533412995955 C 0.0 **** -0.24
26142 H 101.58398462503001 38.03590932652634 32.08677123134913 H 0.0 **** 0.06
26143 H 99.90490874602833 38.07561312461186 31.49938926872045 H 0.0 **** 0.06
26144 H 100.46798711574618 36.71067295024022 32.49415308925899 H 0.0 **** 0.06
26145 H 101.05648982385111 36.897610412731495 30.824579226500305 H 0.0 **** 0.06
26146 C 59.23920269974936 116.16737292058316 109.37802633910815 C 0.0 **** -0.24
26147 H 58.6224655289711 116.50072021180091 110.21183490871857 H 0.0 **** 0.06
26148 H 60.06403984992085 116.86619307309337 109.23344029902714 H 0.0 **** 0.06
26149 H 58.63328277279792 116.12797034466483 108.47197361841552 H 0.0 **** 0.06
26150 H 59.635648531352764 115.17526747907439 109.59322029906943 H 0.0 **** 0.06
26151 C 111.83837298928805 72.8253184934627 2.003537672903178 C 0.0 **** -0.24
26152 H 112.21534455689432 73.27309654585281 2.922506748052797 H 0.0 **** 0.06
26153 H 112.38806068221815 71.90620913352387 1.7960153868460225 H 0.0 **** 0.06
26154 H 111.97344297190611 73.5239206439459 1.1768338596959893 H 0.0 **** 0.06
26155 H 110.77931777204053 72.5975510095283 2.117528420738779 H 0.0 **** 0.06
26156 C 97.27300344364133 0.8219944418057139 61.44626521845328 C 0.0 **** -0.24
26157 H 97.4940970330751 -0.010218343167338162 60.77720727749414 H 0.0 **** 0.06
26158 H 98.19939292214829 1.3351936915187252 61.704820914633785 H 0.0 **** 0.06
26159 H 96.80211429009495 0.4426987483714129 62.35353209429849 H 0.0 **** 0.06
26160 H 96.59693438729875 1.517920708070605 60.949715906649686 H 0.0 **** 0.06
26161 C 30.962142409124993 87.77893015603519 52.00352420830603 C 0.0 **** -0.24
26162 H 31.38184264044793 87.19777470053509 51.18273861678017 H 0.0 **** 0.06
26163 H 31.750747358448137 88.02118854066472 52.71625213765731 H 0.0 **** 0.06
26164 H 30.187882369100976 87.19559113162217 52.502289647275916 H 0.0 **** 0.06
26165 H 30.528959711567524 88.69848408181758 51.612566185375044 H 0.0 **** 0.06
26166 C 26.314074893344838 6.143760989437453 40.41345526152719 C 0.0 **** -0.24
26167 H 26.305943886675458 7.071038751978762 39.839033025046234 H 0.0 **** 0.06
26168 H 26.527659832452677 5.306895860011679 39.74795677347086 H 0.0 **** 0.06
26169 H 25.34028302288442 5.997633110951881 40.880539818545884 H 0.0 **** 0.06
26170 H 27.08244939138693 6.200696021420811 41.18441764297657 H 0.0 **** 0.06
26171 C 17.859057490566983 83.3210507948412 62.22164005570274 C 0.0 **** -0.24
26172 H 17.82646661519584 84.37401598609185 61.9390870606101 H 0.0 **** 0.06
26173 H 18.218048810911625 82.73021739294231 61.37817389552527 H 0.0 **** 0.06
26174 H 16.858062591771898 82.98869538078114 62.497473486803976 H 0.0 **** 0.06
26175 H 18.531859500339237 83.1936353425765 63.06895974190284 H 0.0 **** 0.06
26176 C 111.80181149124064 18.429254783588807 75.70942740143559 C 0.0 **** -0.24
26177 H 111.57976958570089 19.334096332703883 75.14531391836013 H 0.0 **** 0.06
26178 H 111.18220816803512 17.610707968763744 75.34240856035427 H 0.0 **** 0.06
26179 H 111.59209449327972 18.59934543270964 76.76580704934415 H 0.0 **** 0.06
26180 H 112.85432039048203 18.173244052767554 75.58491824679334 H 0.0 **** 0.06
26181 C 46.44637068084825 52.066572511454766 102.30975124799471 C 0.0 **** -0.24
26182 H 46.04156294150607 51.234028069120086 101.7341268696521 H 0.0 **** 0.06
26183 H 46.998807176531045 51.681559282742995 103.16760249878718 H 0.0 **** 0.06
26184 H 45.62896403894672 52.69871899795896 102.65810771115594 H 0.0 **** 0.06
26185 H 47.115652391896845 52.65312489898653 101.67983991140841 H 0.0 **** 0.06
26186 C 67.41711727116217 42.805356620926375 26.030271565220232 C 0.0 **** -0.24
26187 H 66.61085193299755 43.36008840537579 26.51105516094796 H 0.0 **** 0.06
26188 H 68.08909788756563 42.40838180125155 26.792425828251794 H 0.0 **** 0.06
26189 H 67.97072896923373 43.470390480683136 25.367675156936457 H 0.0 **** 0.06
26190 H 66.99724854620752 41.98267206040458 25.451571879197047 H 0.0 **** 0.06
26191 C 96.8714710534027 110.94984025430327 97.67195351142408 C 0.0 **** -0.24
26192 H 97.51627443033638 110.88295965630448 98.54898408835359 H 0.0 **** 0.06
26193 H 97.38240939130586 111.51008104159226 96.88829842467337 H 0.0 **** 0.06
26194 H 95.94656635376106 111.46013767612 97.93925625501828 H 0.0 **** 0.06
26195 H 96.64267187344063 109.94660701438198 97.31256658898437 H 0.0 **** 0.06
26196 C 60.938746037529654 50.80455814433432 82.93322628777335 C 0.0 **** -0.24
26197 H 59.897984211268124 50.50477828014175 82.81183517978468 H 0.0 **** 0.06
26198 H 60.99683305476606 51.89013203389163 83.01681597830569 H 0.0 **** 0.06
26199 H 61.51445935249592 50.47401308008037 82.06907116973778 H 0.0 **** 0.06
26200 H 61.34445604628962 50.34791081169246 83.83639881333804 H 0.0 **** 0.06
26201 C 116.21443845218317 78.70496387793324 102.85186668670187 C 0.0 **** -0.24
26202 H 117.24815610602906 79.05125771938313 102.87978479205876 H 0.0 **** 0.06
26203 H 115.9515151981285 78.42886827186942 101.83083165764202 H 0.0 **** 0.06
26204 H 115.55570699684392 79.502814260776 103.19414373109487 H 0.0 **** 0.06
26205 H 116.1050844127061 77.8383684579477 103.50344860994679 H 0.0 **** 0.06
26206 C 74.58340358437715 26.725187037093804 116.75798964321558 C 0.0 **** -0.24
26207 H 74.43612832955247 25.778067943870667 116.23924271877274 H 0.0 **** 0.06
26208 H 73.65680716195706 27.299116628926583 116.73534276068108 H 0.0 **** 0.06
26209 H 75.3739867749239 27.28964133657655 116.26452386733587 H 0.0 **** 0.06
26210 H 74.86632928884538 26.53182300493029 117.79352885510215 H 0.0 **** 0.06
26211 C 51.998020755882635 26.443669478926836 66.06846433354971 C 0.0 **** -0.24
26212 H 51.186334317363304 25.722097108628134 65.97826245853412 H 0.0 **** 0.06
26213 H 52.92127957267027 25.9228886510636 66.32268758255216 H 0.0 **** 0.06
26214 H 51.75816340715002 27.162880353867195 66.8525964813771 H 0.0 **** 0.06
26215 H 52.1241761521446 26.967798949418864 65.12101138456097 H 0.0 **** 0.06
26216 C 30.012031997650354 103.46601368169428 18.175203823496958 C 0.0 **** -0.24
26217 H 30.53426283944475 102.51110584923862 18.243380136502935 H 0.0 **** 0.06
26218 H 30.481842714229117 104.0827146543358 17.40989363329402 H 0.0 **** 0.06
26219 H 30.063470682974213 103.97693158391985 19.136999519458755 H 0.0 **** 0.06
26220 H 28.969287094134245 103.29034788362816 17.911857045563863 H 0.0 **** 0.06
26221 C 115.444938989089 87.4515668414615 102.35315080713647 C 0.0 **** -0.24
26222 H 115.12854709475319 86.86900473214655 103.218272482136 H 0.0 **** 0.06
26223 H 115.78549693541063 88.43353603052506 102.68136225464895 H 0.0 **** 0.06
26224 H 114.60586033733759 87.56814947221142 101.66698137240107 H 0.0 **** 0.06
26225 H 116.26016482162797 86.93463448251808 101.84610269266528 H 0.0 **** 0.06
26226 C 54.14560075594847 33.868758356803625 63.64415548235667 C 0.0 **** -0.24
26227 H 53.44337536492953 34.58941878125954 63.22495860301374 H 0.0 **** 0.06
26228 H 54.639096003955736 34.30493930406905 64.512025589073 H 0.0 **** 0.06
26229 H 54.89207573258194 33.61101594094535 62.89282471325891 H 0.0 **** 0.06
26230 H 53.607490217604315 32.96953218772549 63.94439425886814 H 0.0 **** 0.06
26231 C 82.81738121020067 72.17018000426583 47.39882316982056 C 0.0 **** -0.24
26232 H 83.54920906476951 72.81797060968108 47.88016007647087 H 0.0 **** 0.06
26233 H 83.02935960614536 71.13137706842548 47.651648361509615 H 0.0 **** 0.06
26234 H 82.8736196236506 72.29995574667299 46.31759029993697 H 0.0 **** 0.06
26235 H 81.81770010772527 72.43251873691344 47.74398255691648 H 0.0 **** 0.06
26236 C 18.771797731858726 98.8136413741793 63.885449730424455 C 0.0 **** -0.24
26237 H 18.43567306358844 99.85083379393157 63.899489173815425 H 0.0 **** 0.06
26238 H 19.806206392057902 98.76255655883165 64.22478438925032 H 0.0 **** 0.06
26239 H 18.702257247388303 98.4234541298618 62.87088090393016 H 0.0 **** 0.06
26240 H 18.142057952009367 98.2194264938799 64.5480932915859 H 0.0 **** 0.06
26241 C 11.410399879752816 114.98102363533866 61.083585157893204 C 0.0 **** -0.24
26242 H 11.737981520742949 115.9942353405608 60.84685243643329 H 0.0 **** 0.06
26243 H 10.959587892682308 114.5298856749587 60.1992712447801 H 0.0 **** 0.06
26244 H 10.67692914825686 115.01531111307858 61.888281335495016 H 0.0 **** 0.06
26245 H 12.268237039374469 114.38683006930862 61.398517500955656 H 0.0 **** 0.06
26246 C 62.901644147227046 74.55587265750671 6.578902936250699 C 0.0 **** -0.24
26247 H 62.44898491672433 74.33075408450969 7.544515802622499 H 0.0 **** 0.06
26248 H 63.50285233690022 75.46247811843423 6.662565045969586 H 0.0 **** 0.06
26249 H 62.11795688047471 74.70620800612522 5.836730795720996 H 0.0 **** 0.06
26250 H 63.53794865686757 73.72551384454655 6.2733808323108065 H 0.0 **** 0.06
26251 C 111.41970140309547 62.84908915841199 105.86130493271193 C 0.0 **** -0.24
26252 H 111.7222130571048 63.83189295655024 106.22186188950681 H 0.0 **** 0.06
26253 H 110.55001457200513 62.95170362095691 105.21186664830628 H 0.0 **** 0.06
26254 H 111.16725200319189 62.212990977061345 106.7097967596199 H 0.0 **** 0.06
26255 H 112.24084594910505 62.40034414944761 105.3022937349958 H 0.0 **** 0.06
26256 C 115.83172180785758 112.73396432872002 48.6575180049677 C 0.0 **** -0.24
26257 H 116.89339149530971 112.67981823390087 48.417608411442814 H 0.0 **** 0.06
26258 H 115.24555441508633 112.57020828608218 47.75330912114049 H 0.0 **** 0.06
26259 H 115.6022057852228 113.71830187693544 49.06737534310952 H 0.0 **** 0.06
26260 H 115.58715312160632 111.96877425651878 49.39388628603166 H 0.0 **** 0.06
26261 C 30.19292512710838 67.49138807353503 88.18289622770857 C 0.0 **** -0.24
26262 H 31.029839118374014 68.05690234486306 88.5925088987596 H 0.0 **** 0.06
26263 H 29.446026294254622 67.33282317788542 88.96117979352402 H 0.0 **** 0.06
26264 H 30.549146753425156 66.52770469057029 87.81914982794694 H 0.0 **** 0.06
26265 H 29.747238110622504 68.04876366729209 87.35928134829277 H 0.0 **** 0.06
26266 C 66.21998744065834 108.05502937866234 75.4992765937453 C 0.0 **** -0.24
26267 H 66.28115899368879 107.79091452633514 74.44374292545871 H 0.0 **** 0.06
26268 H 65.17317514043057 108.11628472783926 75.79872078104097 H 0.0 **** 0.06
26269 H 66.70151439325451 109.01921759853236 75.66074116129954 H 0.0 **** 0.06
26270 H 66.72367931376917 107.29203629189158 76.09412960527348 H 0.0 **** 0.06
26271 C 84.72213620747658 45.143355936649364 77.01854184219528 C 0.0 **** -0.24
26272 H 84.96803596013297 46.070980645151515 77.53559859795425 H 0.0 **** 0.06
26273 H 85.63926144706903 44.59872197090933 76.79330169182671 H 0.0 **** 0.06
26274 H 84.19803325475533 45.37229021171433 76.09108989781558 H 0.0 **** 0.06
26275 H 84.08305899088603 44.53103104513709 77.65508055218521 H 0.0 **** 0.06
26276 C 101.54483571821095 78.25405869142355 2.145654537525928 C 0.0 **** -0.24
26277 H 102.05432353067337 79.2092827541725 2.2716351413240545 H 0.0 **** 0.06
26278 H 101.28439688277342 78.11745240491894 1.0961364130845936 H 0.0 **** 0.06
26279 H 100.63795173039375 78.24382320775447 2.749966221605007 H 0.0 **** 0.06
26280 H 102.20384204947734 77.44594263313542 2.46413388648088 H 0.0 **** 0.06
26281 C 20.567616335679347 62.47807256194122 112.53363037889882 C 0.0 **** -0.24
26282 H 19.55436403212231 62.12544436750437 112.72414559049564 H 0.0 **** 0.06
26283 H 20.527484834445907 63.44928492377724 112.03987739588823 H 0.0 **** 0.06
26284 H 21.086003269039928 61.76579240055571 111.89296601094124 H 0.0 **** 0.06
26285 H 21.10272845591938 62.57438562143838 113.47899477962709 H 0.0 **** 0.06
26286 C 23.381563243046855 39.88560093788098 63.6144716175282 C 0.0 **** -0.24
26287 H 22.345779944196522 39.55838725450238 63.51823134040654 H 0.0 **** 0.06
26288 H 23.5976140646286 40.10105937028305 64.66101004760938 H 0.0 **** 0.06
26289 H 23.534243431706045 40.78576892014502 63.01894215676396 H 0.0 **** 0.06
26290 H 24.045389510169116 39.09793882881246 63.25987610211367 H 0.0 **** 0.06
26291 C 49.23217658754557 53.15703439113001 111.84323179028817 C 0.0 **** -0.24
26292 H 50.1063278716154 53.40405938912318 112.44649972890032 H 0.0 **** 0.06
26293 H 48.33126895282811 53.27585302629183 112.44482260260695 H 0.0 **** 0.06
26294 H 49.306705479558005 52.12511708531066 111.50047667203694 H 0.0 **** 0.06
26295 H 49.18577783783386 53.82412080031868 110.98217089124019 H 0.0 **** 0.06
26296 C 116.02358448792907 97.83717611806935 12.94112908766041 C 0.0 **** -0.24
26297 H 116.64408063312084 97.03441046026245 12.541256770653668 H 0.0 **** 0.06
26298 H 115.90678257221123 97.70423773253665 14.016660427175879 H 0.0 **** 0.06
26299 H 115.04555623699112 97.8111360620291 12.46267688852964 H 0.0 **** 0.06
26300 H 116.50045264119021 98.79699885391923 12.741950627673369 H 0.0 **** 0.06
26301 C 36.808503890853245 35.066530458580715 52.39826856107942 C 0.0 **** -0.24
26302 H 36.504084293476325 34.59384031028198 51.46442558625563 H 0.0 **** 0.06
26303 H 37.5338933104706 34.431349986599535 52.90680561183433 H 0.0 **** 0.06
26304 H 35.93565060179196 35.204802892011 53.036423591488756 H 0.0 **** 0.06
26305 H 37.25925075331921 36.03540480870866 52.184990144780045 H 0.0 **** 0.06
26306 C 39.57892837479014 59.83268434797123 81.31414184317273 C 0.0 **** -0.24
26307 H 39.0602739877464 60.71468872373118 80.93786149886859 H 0.0 **** 0.06
26308 H 40.11297803165559 59.3489749337079 80.49601767439185 H 0.0 **** 0.06
26309 H 38.85210317256687 59.13730873349612 81.73531628419687 H 0.0 **** 0.06
26310 H 40.28746913375855 60.13002814317101 82.0866077454267 H 0.0 **** 0.06
26311 C 30.912895377425173 94.01161366868931 51.76960873596147 C 0.0 **** -0.24
26312 H 31.24344450443698 93.64014269386635 52.73904233036819 H 0.0 **** 0.06
26313 H 31.779090065273607 94.17036079581709 51.126845864652324 H 0.0 **** 0.06
26314 H 30.381453617497783 94.95456632177562 51.904338132500015 H 0.0 **** 0.06
26315 H 30.246418249299722 93.28211924612785 51.308491460719836 H 0.0 **** 0.06
26316 C 85.40524740175806 44.74209466251623 13.923471109184248 C 0.0 **** -0.24
26317 H 84.98502467187592 45.740282847240685 13.805980287628728 H 0.0 **** 0.06
26318 H 86.47163022985774 44.819830198902956 14.137244032401014 H 0.0 **** 0.06
26319 H 85.25805644624839 44.17520501137793 13.00453483566892 H 0.0 **** 0.06
26320 H 84.90555316531504 44.2326970467667 14.748209114955273 H 0.0 **** 0.06
26321 C 62.36389033155555 33.14196189665036 102.55674261966047 C 0.0 **** -0.24
26322 H 61.623830973865154 33.08357022235919 101.75870595604704 H 0.0 **** 0.06
26323 H 62.62869830862758 34.18494979257408 102.73183681910953 H 0.0 **** 0.06
26324 H 63.25428700559914 32.58435613026651 102.26681242240255 H 0.0 **** 0.06
26325 H 61.94841652997491 32.71402366419247 103.46861832729576 H 0.0 **** 0.06
26326 C 16.919208019255223 29.39329462240704 49.87975381530194 C 0.0 **** -0.24
26327 H 16.186732340682454 29.071262038778798 50.61999253699702 H 0.0 **** 0.06
26328 H 16.409432995957275 29.648206344367395 48.950494206438904 H 0.0 **** 0.06
26329 H 17.627995778609318 28.585659227497842 49.69484846260242 H 0.0 **** 0.06
26330 H 17.45324522988585 30.266834833542703 50.25324237295784 H 0.0 **** 0.06
26331 C 21.444034042423425 99.50134940634004 55.56966459294897 C 0.0 **** -0.24
26332 H 21.196590545374278 100.30831219421768 56.260731051108756 H 0.0 **** 0.06
26333 H 20.546698555990616 98.91955505670393 55.35662379484827 H 0.0 **** 0.06
26334 H 22.19758509218181 98.8561475766513 56.019746027934595 H 0.0 **** 0.06
26335 H 21.831840841604475 99.92338094044527 54.64269953608566 H 0.0 **** 0.06
26336 C 15.884608436331263 76.88479344113063 37.90091178017397 C 0.0 **** -0.24
26337 H 15.499227594158157 77.75359848536084 38.434591805966164 H 0.0 **** 0.06
26338 H 15.049978868590614 76.27268155091139 37.55574570606157 H 0.0 **** 0.06
26339 H 16.513248536114446 76.2976841652602 38.56979834868312 H 0.0 **** 0.06
26340 H 16.471575740938704 77.21481918401932 37.045080471163146 H 0.0 **** 0.06
26341 C 30.8242864832427 114.61924950265663 32.2524763391466 C 0.0 **** -0.24
26342 H 30.77287029002045 113.65454604558528 31.746277106271805 H 0.0 **** 0.06
26343 H 31.848978770078304 114.98974290693607 32.2237305741956 H 0.0 **** 0.06
26344 H 30.50874546688749 114.50167373073688 33.28993470623689 H 0.0 **** 0.06
26345 H 30.16614626367212 115.32814448607519 31.750655370614822 H 0.0 **** 0.06
26346 C 56.93744526066457 82.7725748112106 2.8184450816147315 C 0.0 **** -0.24
26347 H 57.66471839334066 81.96429389480951 2.748805599991714 H 0.0 **** 0.06
26348 H 57.45369911551884 83.70925754347925 3.0299312789781823 H 0.0 **** 0.06
26349 H 56.23163252625286 82.55726626562699 3.6218986854118693 H 0.0 **** 0.06
26350 H 56.398463122774935 82.85831212197746 1.8748840940834821 H 0.0 **** 0.06
26351 C 78.87372058196854 60.67274309985825 90.51486286854464 C 0.0 **** -0.24
26352 H 77.84723847323122 60.371710610882815 90.30789226812465 H 0.0 **** 0.06
26353 H 78.87846044687697 61.435986832144266 91.29294158974821 H 0.0 **** 0.06
26354 H 79.3253804776403 61.07452444107636 89.6077195109633 H 0.0 **** 0.06
26355 H 79.4440236130377 59.80670996619364 90.85223519418588 H 0.0 **** 0.06
26356 C 46.4247537827528 2.681124377302325 83.26408534105201 C 0.0 **** -0.24
26357 H 45.96168778120381 1.7716426483750496 83.64486840268322 H 0.0 **** 0.06
26358 H 46.05907515528344 3.5389152782385054 83.82903127745897 H 0.0 **** 0.06
26359 H 46.16929809144102 2.8041897222658463 82.21095270148439 H 0.0 **** 0.06
26360 H 47.50739433427702 2.6101132752225595 83.36963549959324 H 0.0 **** 0.06
26361 C 22.088489628050752 104.65725985870202 104.85130151849168 C 0.0 **** -0.24
26362 H 21.72174116150407 103.88150000805624 105.52390111428087 H 0.0 **** 0.06
26363 H 21.319865243252906 104.8937006001467 104.1160415309505 H 0.0 **** 0.06
26364 H 22.984031760198917 104.30272654538075 104.3415286740208 H 0.0 **** 0.06
26365 H 22.328652662179366 105.55128513099459 105.42671136557152 H 0.0 **** 0.06
26366 C 108.58530835000806 15.909163671279202 70.95686941562121 C 0.0 **** -0.24
26367 H 107.83009095801404 15.192061772324507 71.27935747857066 H 0.0 **** 0.06
26368 H 108.99510405076845 16.42065833700991 71.82802937664871 H 0.0 **** 0.06
26369 H 108.13070962801518 16.6387707000427 70.28671976821715 H 0.0 **** 0.06
26370 H 109.38533887115801 15.384096242570308 70.43429849435495 H 0.0 **** 0.06
26371 C 29.9307580039885 76.4158138502832 18.980315862636928 C 0.0 **** -0.24
26372 H 29.452637116531328 76.38064062827965 19.958752969927446 H 0.0 **** 0.06
26373 H 29.28890628544618 76.95307949718381 18.28121284083511 H 0.0 **** 0.06
26374 H 30.09202091584597 75.40004921198965 18.61841881113139 H 0.0 **** 0.06
26375 H 30.88915859688725 76.92855020415249 19.06270947276613 H 0.0 **** 0.06
26376 C 111.5186035349021 109.71889090812921 14.957188816112875 C 0.0 **** -0.24
26377 H 111.9526265241204 110.14791676147479 14.054105308757414 H 0.0 **** 0.06
26378 H 112.30716442465808 109.53888277195401 15.688761667163249 H 0.0 **** 0.06
26379 H 111.02804423524572 108.7767803341663 14.712357836180843 H 0.0 **** 0.06
26380 H 110.78741281663548 110.41182903661826 15.374060351349442 H 0.0 **** 0.06
26381 C 15.536809807147904 1.434804354412364 8.528316286451911 C 0.0 **** -0.24
26382 H 14.596359693048555 1.4510727372498025 9.078934008294382 H 0.0 **** 0.06
26383 H 15.692563979540296 2.3995454061221153 8.046303567909547 H 0.0 **** 0.06
26384 H 15.49985557821094 0.6507795661195246 7.771752011751843 H 0.0 **** 0.06
26385 H 16.356651264185473 1.2356413803723 9.217684111594451 H 0.0 **** 0.06
26386 C 62.91246498127492 67.42303840430773 8.578197199330749 C 0.0 **** -0.24
26387 H 62.61734384927519 68.40552965385811 8.945316216386189 H 0.0 **** 0.06
26388 H 62.03828137111441 66.90502549484609 8.18233399975168 H 0.0 **** 0.06
26389 H 63.339507818058905 66.84338088780194 9.395907099863983 H 0.0 **** 0.06
26390 H 63.654676502112295 67.5387857613133 7.787937360647888 H 0.0 **** 0.06
26391 C 57.12400555036447 24.709746058644555 16.380231710982116 C 0.0 **** -0.24
26392 H 56.5912990073395 24.235344547480253 15.554659761371198 H 0.0 **** 0.06
26393 H 57.191379522986495 25.78245743202615 16.198845313302712 H 0.0 **** 0.06
26394 H 58.12674346742273 24.28890748239067 16.45352918359427 H 0.0 **** 0.06
26395 H 56.58575792816487 24.530418331288416 17.31030856778719 H 0.0 **** 0.06
26396 C 45.05163802581189 2.340725393658232 76.6825706385149 C 0.0 **** -0.24
26397 H 44.3183747505793 2.590049422290349 77.44880454303157 H 0.0 **** 0.06
26398 H 45.46411591014805 3.258753463613047 76.26304534708473 H 0.0 **** 0.06
26399 H 44.56983529116599 1.765238841000624 75.89220153990377 H 0.0 **** 0.06
26400 H 45.85441103167002 1.7503415134700333 77.12428926045001 H 0.0 **** 0.06
26401 C 52.157541441158116 33.00024541444964 60.77741162478166 C 0.0 **** -0.24
26402 H 51.61518020527393 32.53990904819392 61.60342294427803 H 0.0 **** 0.06
26403 H 51.69999536437342 32.703642961832884 59.8336799207461 H 0.0 **** 0.06
26404 H 53.19635283825977 32.67023014395784 60.79710392294057 H 0.0 **** 0.06
26405 H 52.11855833938972 34.0844667646125 60.87616521589401 H 0.0 **** 0.06
26406 C 42.06323964505982 3.882069687405462 62.67355051410618 C 0.0 **** -0.24
26407 H 42.650161199452306 3.4679924105864046 63.49403946787464 H 0.0 **** 0.06
26408 H 41.96065828398125 4.958723465920215 62.80856407313479 H 0.0 **** 0.06
26409 H 41.07542087649277 3.421133396010873 62.66507740113707 H 0.0 **** 0.06
26410 H 42.56701941848217 3.680403208519138 61.728951944984715 H 0.0 **** 0.06
26411 C 18.614022292389308 98.66679822427903 85.57195343055162 C 0.0 **** -0.24
26412 H 18.23895495336987 97.86681399563741 84.93410105282388 H 0.0 **** 0.06
26413 H 19.069982084704492 98.23522343996868 86.46354576795258 H 0.0 **** 0.06
26414 H 17.788463513567763 99.31614125928047 85.86305355257252 H 0.0 **** 0.06
26415 H 19.358551548355308 99.24679177520045 85.02731906780383 H 0.0 **** 0.06
26416 C 2.1191748835132955 13.374937452734525 45.9958146519628 C 0.0 **** -0.24
26417 H 2.7886768113544917 14.000250401419343 45.40522778571258 H 0.0 **** 0.06
26418 H 2.340979702816327 13.506665872344986 47.05556759454673 H 0.0 **** 0.06
26419 H 2.262389555920379 12.32969245636249 45.7215184050072 H 0.0 **** 0.06
26420 H 1.086825779386487 13.663014600487383 45.801459932937206 H 0.0 **** 0.06
26421 C 91.39006396968796 45.00077345728096 97.9176640439178 C 0.0 **** -0.24
26422 H 90.65109255250141 45.79825275398099 97.99224924949735 H 0.0 **** 0.06
26423 H 91.72044567341294 44.90679703988661 96.8832079902547 H 0.0 **** 0.06
26424 H 90.9448703062663 44.06159468129755 98.24446173825899 H 0.0 **** 0.06
26425 H 92.24470178954036 45.237699315486736 98.55266278112771 H 0.0 **** 0.06
26426 C 62.02376295191655 82.43267247966111 55.10388543766006 C 0.0 **** -0.24
26427 H 61.56358054547428 81.74079730532213 55.809193774884044 H 0.0 **** 0.06
26428 H 62.9943647885992 82.74869070915878 55.48636226778407 H 0.0 **** 0.06
26429 H 61.38096445009742 83.30461833892258 54.97948479723413 H 0.0 **** 0.06
26430 H 62.15534967930594 81.93823731470565 54.14178059571561 H 0.0 **** 0.06
26431 C 20.58328813022824 5.912058815085942 62.801511105239285 C 0.0 **** -0.24
26432 H 21.627210313550435 5.612343419551081 62.704861371812626 H 0.0 **** 0.06
26433 H 20.340084788927484 6.047135945230934 63.85526404154285 H 0.0 **** 0.06
26434 H 19.94284244473579 5.139461195025518 62.37629446142529 H 0.0 **** 0.06
26435 H 20.423879054245504 6.848889915924303 62.268178970727774 H 0.0 **** 0.06
26436 C 44.32301394049355 7.882100321659152 84.7297833522507 C 0.0 **** -0.24
26437 H 45.36586989299329 7.837717943822696 84.41443642893944 H 0.0 **** 0.06
26438 H 43.89609273899265 6.879252025685531 84.71392286829973 H 0.0 **** 0.06
26439 H 43.7644464337543 8.525577697489979 84.04998766444695 H 0.0 **** 0.06
26440 H 44.26695582611134 8.28548857109223 85.74117764371616 H 0.0 **** 0.06
26441 C 28.891947805935672 106.69808544502567 43.991086413940906 C 0.0 **** -0.24
26442 H 29.635121721995574 107.34162584678032 44.461120673718625 H 0.0 **** 0.06
26443 H 28.019191681751295 106.61737011745868 44.63848637138429 H 0.0 **** 0.06
26444 H 29.3195271428703 105.7076536046064 43.83132185237184 H 0.0 **** 0.06
26445 H 28.59675342246254 107.12435719743306 43.032249284429184 H 0.0 **** 0.06
26446 C 42.95593593515625 97.57170780210498 71.61301509016715 C 0.0 **** -0.24
26447 H 43.86403439511594 96.99763239720451 71.79529658363046 H 0.0 **** 0.06
26448 H 42.808736507898416 98.2866243512654 72.42338025521246 H 0.0 **** 0.06
26449 H 42.10199283822013 96.8944544207512 71.56657025352828 H 0.0 **** 0.06
26450 H 43.047926420073054 98.10681744018748 70.66829431410622 H 0.0 **** 0.06
26451 C 4.537314004429987 86.36693273613932 66.27871626001539 C 0.0 **** -0.24
26452 H 5.4892366255669565 86.01211528562618 66.67470225630049 H 0.0 **** 0.06
26453 H 3.7222051916244236 85.97848894455961 66.88836119184685 H 0.0 **** 0.06
26454 H 4.420513276962428 86.02248270647385 65.25069350179913 H 0.0 **** 0.06
26455 H 4.520072789156957 87.45688813164742 66.29997606430149 H 0.0 **** 0.06
26456 C 96.00305269141703 11.627484392320156 110.2728063151813 C 0.0 **** -0.24
26457 H 96.40943805574918 12.638511256252983 110.23872400892418 H 0.0 **** 0.06
26458 H 95.19043931073429 11.587202749493983 110.99746264012848 H 0.0 **** 0.06
26459 H 96.78835325858913 10.931053121360065 110.56864501276291 H 0.0 **** 0.06
26460 H 95.62720587965404 11.353939341775487 109.28739564557841 H 0.0 **** 0.06
26461 C 109.20356373325244 20.34216671772799 53.057343677411566 C 0.0 **** -0.24
26462 H 108.72837235672267 19.38637109147922 53.27995070432967 H 0.0 **** 0.06
26463 H 109.60373011030704 20.771463064833483 53.97563091884836 H 0.0 **** 0.06
26464 H 108.46788009445117 21.022328248344223 52.62859221502018 H 0.0 **** 0.06
26465 H 110.01433980489519 20.187123214954198 52.34549703640938 H 0.0 **** 0.06
26466 C 27.029702303105267 76.09389723709586 9.5381453393402 C 0.0 **** -0.24
26467 H 26.84233634315845 77.16653361022941 9.588664438951607 H 0.0 **** 0.06
26468 H 27.799464789707983 75.8255578794539 10.262027715406706 H 0.0 **** 0.06
26469 H 27.365633007181103 75.83079662919843 8.534886835124997 H 0.0 **** 0.06
26470 H 26.110388936989636 75.55463400759038 9.766463248473077 H 0.0 **** 0.06
26471 C 51.274410171655184 111.2621272999105 10.525816556000038 C 0.0 **** -0.24
26472 H 52.181516039853506 111.50482315396292 11.079754873756855 H 0.0 **** 0.06
26473 H 51.54101120720179 110.75117700351507 9.600650816086102 H 0.0 **** 0.06
26474 H 50.734502916670834 112.17943016787265 10.292583784780518 H 0.0 **** 0.06
26475 H 50.64233973309691 110.61239054583291 11.131516235665245 H 0.0 **** 0.06
26476 C 88.23121439205644 19.609120742393458 74.54493469402567 C 0.0 **** -0.24
26477 H 87.92341367408733 20.249766886902023 73.71806938113428 H 0.0 **** 0.06
26478 H 87.79408259175312 19.97909779244702 75.47299978051589 H 0.0 **** 0.06
26479 H 89.31779345281123 19.618488808559448 74.62627414400461 H 0.0 **** 0.06
26480 H 87.88992196111644 18.591096912619946 74.36233180999122 H 0.0 **** 0.06
26481 C 36.0956270776839 88.19771436956924 104.13498470329787 C 0.0 **** -0.24
26482 H 35.0360488821438 88.01104261622456 104.31319452195862 H 0.0 **** 0.06
26483 H 36.328528421283806 87.99905841161655 103.08835735806531 H 0.0 **** 0.06
26484 H 36.69115189983154 87.54248746217306 104.77058272316472 H 0.0 **** 0.06
26485 H 36.3253220221265 89.23666341986734 104.36835133216445 H 0.0 **** 0.06
26486 C 37.09574900386973 24.74081054240932 41.6432390302557 C 0.0 **** -0.24
26487 H 37.64575328348031 24.30690423061455 42.47750007631768 H 0.0 **** 0.06
26488 H 36.59150109491842 23.948608169976524 41.08975513882359 H 0.0 **** 0.06
26489 H 37.788396879945275 25.26274793923497 40.98353743313359 H 0.0 **** 0.06
26490 H 36.35565540853176 25.44576082055312 42.02340426482195 H 0.0 **** 0.06
26491 C 49.50568011493175 28.371338799236526 101.5417385608782 C 0.0 **** -0.24
26492 H 49.84227855326142 29.390501010511272 101.34990039021395 H 0.0 **** 0.06
26493 H 50.00622925444986 27.98415834876578 102.4292698712523 H 0.0 **** 0.06
26494 H 49.74624186875647 27.74248593213465 100.68513945947913 H 0.0 **** 0.06
26495 H 48.427156309006676 28.36970914330145 101.70234603980651 H 0.0 **** 0.06
26496 C 92.86457347106739 100.84460142903296 45.75328626629022 C 0.0 **** -0.24
26497 H 92.91589346903555 101.70742381748835 46.417530770607016 H 0.0 **** 0.06
26498 H 93.80220948397789 100.75339915461828 45.20444762646173 H 0.0 **** 0.06
26499 H 92.04214036482063 100.97665011836975 45.050026774818775 H 0.0 **** 0.06
26500 H 92.69831250785626 99.94305241882921 46.34180182517446 H 0.0 **** 0.06
26501 C 74.30149891441624 43.829124976202536 5.945764418305686 C 0.0 **** -0.24
26502 H 73.674342091678 44.01890383940892 6.817099196077152 H 0.0 **** 0.06
26503 H 74.54898462654683 42.768168548010294 5.90174980250373 H 0.0 **** 0.06
26504 H 75.21830871671199 44.41332120374139 6.023729204559686 H 0.0 **** 0.06
26505 H 73.76414881361654 44.11499767750641 5.041793397872937 H 0.0 **** 0.06
26506 C 82.28801467814304 50.73067520254767 0.2600169604186817 C 0.0 **** -0.24
26507 H 82.57769351396911 51.500180099097236 -0.45579472641730945 H 0.0 **** 0.06
26508 H 81.8265406956514 51.199060437100314 1.1299503258454706 H 0.0 **** 0.06
26509 H 83.17076373045771 50.17376286767032 0.5727975168265402 H 0.0 **** 0.06
26510 H 81.57549480395974 50.05021845475294 -0.2063595130053386 H 0.0 **** 0.06
26511 C 59.29036524236926 114.81007207140587 0.7201208796680305 C 0.0 **** -0.24
26512 H 58.73694668511621 115.71971656086026 0.9544130017981303 H 0.0 **** 0.06
26513 H 59.96723761022565 114.57583215633878 1.5424526204760838 H 0.0 **** 0.06
26514 H 59.86549570637192 114.96112254953766 -0.19267241079238318 H 0.0 **** 0.06
26515 H 58.591443148538815 113.98630413230589 0.5788721887413288 H 0.0 **** 0.06
26516 C 57.631148965276275 24.40574869507121 109.51227105543924 C 0.0 **** -0.24
26517 H 57.30638920804679 24.17174026640984 108.49937964518946 H 0.0 **** 0.06
26518 H 58.22821269871124 23.5806836439925 109.90271262022151 H 0.0 **** 0.06
26519 H 56.757459523136426 24.555611168527776 110.1481319518712 H 0.0 **** 0.06
26520 H 58.232063158313416 25.314998500123167 109.50019286328619 H 0.0 **** 0.06
26521 C 101.52384709437402 59.169017852441186 89.45578712773693 C 0.0 **** -0.24
26522 H 101.13251018934142 60.1294748256513 89.11947502424314 H 0.0 **** 0.06
26523 H 102.5517552349117 59.294887760271536 89.79622155553753 H 0.0 **** 0.06
26524 H 101.49790112830073 58.457287479912566 88.63107165709255 H 0.0 **** 0.06
26525 H 100.91126939227988 58.79572944486682 90.27707109021324 H 0.0 **** 0.06
26526 C 38.43386930262389 81.85397852244415 44.72353975281625 C 0.0 **** -0.24
26527 H 38.74428228551557 82.86551976387412 44.46135456171393 H 0.0 **** 0.06
26528 H 37.348900282808 81.77648997258314 44.65353465541307 H 0.0 **** 0.06
26529 H 38.749010626406914 81.6309146656092 45.74414132925051 H 0.0 **** 0.06
26530 H 38.89387898123094 81.14342826514249 44.03803607359205 H 0.0 **** 0.06
26531 C 89.62394941752854 112.95582022308044 50.45812118808604 C 0.0 **** -0.24
26532 H 89.26432789338014 113.76133097922477 51.098410770153976 H 0.0 **** 0.06
26533 H 90.70848721472737 113.02003375403821 50.36920908101345 H 0.0 **** 0.06
26534 H 89.17226698542092 113.04796475475926 49.470406993502394 H 0.0 **** 0.06
26535 H 89.35045362740226 111.99523966429959 50.89393648184296 H 0.0 **** 0.06
26536 C 25.509799827090376 71.72096524399063 99.22022750251261 C 0.0 **** -0.24
26537 H 26.186702531855985 71.08160536698554 98.65443108747536 H 0.0 **** 0.06
26538 H 25.939984163263773 72.71904292997908 99.30550562052662 H 0.0 **** 0.06
26539 H 25.363680511612074 71.30227420729295 100.21692456793664 H 0.0 **** 0.06
26540 H 24.550923620072297 71.77980870201952 98.70613433991406 H 0.0 **** 0.06
26541 C 82.32196511246653 93.66112431875729 80.78700422427102 C 0.0 **** -0.24
26542 H 81.961264766928 93.24846073721324 79.84448258969044 H 0.0 **** 0.06
26543 H 81.86215154632256 93.12579226492886 81.61739570439295 H 0.0 **** 0.06
26544 H 82.06055467068717 94.7173778342437 80.84482302350116 H 0.0 **** 0.06
26545 H 83.40599257053174 93.55182866551519 80.83944461707023 H 0.0 **** 0.06
26546 C 54.058944419596 30.128897849924044 17.264369435926938 C 0.0 **** -0.24
26547 H 54.22707765456619 29.64127054716664 18.224948861306473 H 0.0 **** 0.06
26548 H 54.98198629843776 30.603100372175675 16.932038911405073 H 0.0 **** 0.06
26549 H 53.27984504298874 30.883303733191497 17.372415131167486 H 0.0 **** 0.06
26550 H 53.745350977102134 29.386359953988006 16.531120127724023 H 0.0 **** 0.06
26551 C 2.8339991387042573 31.30352309192233 96.29144409107383 C 0.0 **** -0.24
26552 H 3.413790523292562 32.050237710115226 95.75000792266968 H 0.0 **** 0.06
26553 H 2.2694170174591477 31.78896043414852 97.08800207836612 H 0.0 **** 0.06
26554 H 3.507997333416597 30.56333088909159 96.72418763919373 H 0.0 **** 0.06
26555 H 2.1454057248299705 30.810763215449498 95.60581101164001 H 0.0 **** 0.06
26556 C 30.29746161092214 88.05297763921845 81.0220049617275 C 0.0 **** -0.24
26557 H 30.927758134185353 88.93681826194197 80.9265116081624 H 0.0 **** 0.06
26558 H 30.874120669067793 87.24335638968057 81.4704966450663 H 0.0 **** 0.06
26559 H 29.94928265990876 87.74754139985441 80.03574787760891 H 0.0 **** 0.06
26560 H 29.44103772422585 88.28463643883472 81.65474444714087 H 0.0 **** 0.06
26561 C 62.500835965965955 63.32941059773475 20.923099272434037 C 0.0 **** -0.24
26562 H 61.533163790918785 63.56292853662055 20.47941258084246 H 0.0 **** 0.06
26563 H 63.09514658234806 62.751764874689115 20.214476432845718 H 0.0 **** 0.06
26564 H 62.352108162631204 62.74701372434063 21.832129448456122 H 0.0 **** 0.06
26565 H 63.022127157815554 64.2548069855589 21.16607854772226 H 0.0 **** 0.06
26566 C 10.378796088294365 57.89406209527608 52.51045077753224 C 0.0 **** -0.24
26567 H 9.721465567082163 57.87463985741227 51.64158410969833 H 0.0 **** 0.06
26568 H 11.323745015784539 58.366133762180546 52.24054920017005 H 0.0 **** 0.06
26569 H 10.564630365338672 56.87461875201607 52.84766854475117 H 0.0 **** 0.06
26570 H 9.904060799634976 58.461450536870295 53.312040965074004 H 0.0 **** 0.06
26571 C 104.72085596347284 73.60802757270653 2.0749216181243924 C 0.0 **** -0.24
26572 H 105.67392465592721 73.15894573396918 2.3537199574038254 H 0.0 **** 0.06
26573 H 104.56220528060348 74.51378973901257 2.6604323706659443 H 0.0 **** 0.06
26574 H 103.91493176547803 72.90058456490988 2.2722375848135243 H 0.0 **** 0.06
26575 H 104.7330682681852 73.85701754624563 1.014462407379881 H 0.0 **** 0.06
26576 C 26.46252244038685 32.48518188886135 105.6930857875945 C 0.0 **** -0.24
26577 H 26.784429407859534 33.041958308963046 106.57328230151268 H 0.0 **** 0.06
26578 H 27.330359689807352 32.04001100933766 105.20745083507887 H 0.0 **** 0.06
26579 H 25.96353153126627 33.1610940566236 104.99889506531582 H 0.0 **** 0.06
26580 H 25.770943328364382 31.697851453262786 105.9947845538698 H 0.0 **** 0.06
26581 C 51.90162528609004 14.297503790379832 96.47436558087259 C 0.0 **** -0.24
26582 H 52.258469624539636 15.32153892528645 96.58910087045396 H 0.0 **** 0.06
26583 H 51.73442264387132 13.859839787145376 97.45803595482934 H 0.0 **** 0.06
26584 H 52.64770855629859 13.711054678230322 95.93704982093237 H 0.0 **** 0.06
26585 H 50.968027892628065 14.29934399402504 95.9126686623392 H 0.0 **** 0.06
26586 C 5.460539407374057 88.05374391466833 57.957611181949574 C 0.0 **** -0.24
26587 H 4.66307960347234 88.7041164715757 57.59730519938617 H 0.0 **** 0.06
26588 H 6.157668390453864 88.63512287403731 58.56085544402316 H 0.0 **** 0.06
26589 H 5.988278728924428 87.6206250837007 57.10739632548564 H 0.0 **** 0.06
26590 H 5.032207382407535 87.25594795697148 58.56368477759213 H 0.0 **** 0.06
26591 C 43.56536921697332 61.648442098395016 102.66105412138606 C 0.0 **** -0.24
26592 H 42.54107480436207 61.93193453908771 102.90357210567419 H 0.0 **** 0.06
26593 H 44.25369314606678 62.38432290397481 103.0793108589246 H 0.0 **** 0.06
26594 H 43.68522848226999 61.61207090359486 101.57880932898556 H 0.0 **** 0.06
26595 H 43.781398805630204 60.66751402835346 103.08382507087035 H 0.0 **** 0.06
26596 C 19.960396326020685 105.47340451628205 113.20250146620253 C 0.0 **** -0.24
26597 H 20.878666052333273 105.12059866052854 112.73181391689283 H 0.0 **** 0.06
26598 H 19.70787617930587 106.4589894883953 112.8114441793042 H 0.0 **** 0.06
26599 H 20.10588914754439 105.53529373501044 114.28087872708034 H 0.0 **** 0.06
26600 H 19.15092862756923 104.7770630128314 112.98412219851889 H 0.0 **** 0.06
26601 C 35.79067281866956 103.09553720032073 91.32612099631487 C 0.0 **** -0.24
26602 H 35.28469644896117 102.14448208196148 91.16607123485497 H 0.0 **** 0.06
26603 H 36.13063490643695 103.49184762050237 90.36910698451408 H 0.0 **** 0.06
26604 H 36.64836361089105 102.94577980607639 91.98215621857719 H 0.0 **** 0.06
26605 H 35.09968728583371 103.80096301734724 91.78796771546547 H 0.0 **** 0.06
26606 C 89.16734692947819 115.99452889235593 33.7299709128834 C 0.0 **** -0.24
26607 H 88.84471410612048 116.7394568853953 34.45688856439237 H 0.0 **** 0.06
26608 H 88.93228765969525 114.99747937370898 34.10288562311669 H 0.0 **** 0.06
26609 H 90.24289808023894 116.08047833183011 33.57537019806626 H 0.0 **** 0.06
26610 H 88.65073351695955 116.16135419982919 32.784886867655864 H 0.0 **** 0.06
26611 C 43.37867003451288 43.04310794589637 115.14685714907614 C 0.0 **** -0.24
26612 H 44.19558392105404 42.560007155291686 115.68379787931582 H 0.0 **** 0.06
26613 H 42.94572856648273 42.33935761117496 114.4359921036405 H 0.0 **** 0.06
26614 H 43.759667063880954 43.91236956356008 114.61240755299292 H 0.0 **** 0.06
26615 H 42.61433244432999 43.35858608194806 115.85700400428317 H 0.0 **** 0.06
26616 C 78.52511226904937 116.2928706104941 81.93481292685416 C 0.0 **** -0.24
26617 H 78.95945773092836 116.89614490387424 81.1380061266716 H 0.0 **** 0.06
26618 H 77.67007375528524 116.81662208767199 82.3622348437365 H 0.0 **** 0.06
26619 H 79.27266080772768 116.12314333305682 82.71025205897305 H 0.0 **** 0.06
26620 H 78.19946736790357 115.3353924493797 81.52753296356966 H 0.0 **** 0.06
26621 C 53.28468486959285 91.87265512291185 47.35894302299316 C 0.0 **** -0.24
26622 H 53.825289984158616 92.6519336329975 46.82171115342236 H 0.0 **** 0.06
26623 H 52.2502157300637 92.18467935806373 47.50642016378648 H 0.0 **** 0.06
26624 H 53.75589800798759 91.70585760815737 48.32737304645742 H 0.0 **** 0.06
26625 H 53.307504596512906 90.94912956520994 46.78015913628057 H 0.0 **** 0.06
26626 C 35.67870079780997 35.9421096473356 64.21588328028531 C 0.0 **** -0.24
26627 H 35.35136083231657 36.93492982686524 63.90867235555768 H 0.0 **** 0.06
26628 H 35.14614040442146 35.18879017491365 63.635859890782775 H 0.0 **** 0.06
26629 H 35.466641050885585 35.80147980720943 65.27544018612005 H 0.0 **** 0.06
26630 H 36.750660903616534 35.843238780354014 64.04356068868057 H 0.0 **** 0.06
26631 C 116.15589778837708 95.75115381660919 35.22194326733405 C 0.0 **** -0.24
26632 H 116.23399465048313 96.39464116306667 36.09808244720453 H 0.0 **** 0.06
26633 H 116.81316988704043 96.12490989721184 34.437304049191575 H 0.0 **** 0.06
26634 H 115.12689084449536 95.74929477132162 34.863527066104496 H 0.0 **** 0.06
26635 H 116.44865790821127 94.73580297019566 35.48996781525128 H 0.0 **** 0.06
26636 C 22.189122611066864 12.331705205298675 25.025031380659783 C 0.0 **** -0.24
26637 H 22.427230152869896 11.301235348679654 25.29151913670438 H 0.0 **** 0.06
26638 H 21.195956479684128 12.582397446983094 25.396298589663814 H 0.0 **** 0.06
26639 H 22.21007335208435 12.439992103522258 23.940114313004926 H 0.0 **** 0.06
26640 H 22.925308949520456 13.001313777060773 25.471126744023877 H 0.0 **** 0.06
26641 C 46.191735460227434 26.328093664578773 13.01019378187155 C 0.0 **** -0.24
26642 H 45.87230679938111 27.33234282743311 12.733949609445204 H 0.0 **** 0.06
26643 H 45.795965131643186 25.61052141994321 12.2911090049069 H 0.0 **** 0.06
26644 H 45.81789142360059 26.088557020410803 14.005288126127851 H 0.0 **** 0.06
26645 H 47.28120017017153 26.279620176293463 13.010216635725527 H 0.0 **** 0.06
26646 C 6.545458821894892 71.12731834157069 114.2357517272871 C 0.0 **** -0.24
26647 H 6.263490915711108 70.07521398428298 114.18392948003779 H 0.0 **** 0.06
26648 H 7.479579112258831 71.27896403095008 113.69424468744816 H 0.0 **** 0.06
26649 H 6.677850987874248 71.41746098593558 115.27758879200545 H 0.0 **** 0.06
26650 H 5.76212519195113 71.73561372370901 113.78470399352713 H 0.0 **** 0.06
26651 C 15.528459631611156 83.95817326900163 104.0877498263248 C 0.0 **** -0.24
26652 H 16.293059610453724 83.7617210423231 103.33654790545057 H 0.0 **** 0.06
26653 H 15.435274137767294 83.09323541731814 104.74498492874005 H 0.0 **** 0.06
26654 H 14.574327415281743 84.14486184720792 103.59604870848801 H 0.0 **** 0.06
26655 H 15.812262154740324 84.83191126708047 104.67436384118577 H 0.0 **** 0.06
26656 C 56.040396878288156 45.97931535751016 61.63917725520535 C 0.0 **** -0.24
26657 H 55.00867290024076 45.86314879611531 61.972598891304436 H 0.0 **** 0.06
26658 H 56.440994666814326 46.91997097510179 62.01815408104434 H 0.0 **** 0.06
26659 H 56.071243303391604 45.98278715924826 60.549461957665464 H 0.0 **** 0.06
26660 H 56.63977769714062 45.15129557244525 62.01692823653651 H 0.0 **** 0.06
26661 C 49.292152859810756 7.3860178709306314 71.72090712332479 C 0.0 **** -0.24
26662 H 49.33872114094817 6.333364439025438 72.00265736998682 H 0.0 **** 0.06
26663 H 50.08445836022838 7.604016799557984 71.00432254013987 H 0.0 **** 0.06
26664 H 49.423480745882785 8.005202470337991 72.60747990603227 H 0.0 **** 0.06
26665 H 48.32353426819964 7.598168068235557 71.26848003256924 H 0.0 **** 0.06
26666 C 49.47931725801965 32.92586039088985 28.185364056201678 C 0.0 **** -0.24
26667 H 50.09555729770847 33.63570763717519 27.633190994095088 H 0.0 **** 0.06
26668 H 48.887431109501335 33.46020015560015 28.929369327131383 H 0.0 **** 0.06
26669 H 50.12084745081944 32.199358308513354 28.684559136282644 H 0.0 **** 0.06
26670 H 48.814102084363014 32.40862787887551 27.49374690607823 H 0.0 **** 0.06
26671 C 6.421010730867751 4.3284152449191655 99.46611887003877 C 0.0 **** -0.24
26672 H 7.27267318145946 4.714498844544652 98.90736543415068 H 0.0 **** 0.06
26673 H 6.173010222333273 3.3296198490250006 99.10773857325592 H 0.0 **** 0.06
26674 H 5.565109207700781 4.988592796160207 99.32437201300468 H 0.0 **** 0.06
26675 H 6.6725280293131135 4.282872096688717 100.52588386989692 H 0.0 **** 0.06
26676 C 42.391469385621065 64.59099524293572 93.05016863697125 C 0.0 **** -0.24
26677 H 42.45549103229156 63.96213192410776 92.1622637372177 H 0.0 **** 0.06
26678 H 42.297992659650696 63.96104195637937 93.93558662154837 H 0.0 **** 0.06
26679 H 41.52115787425112 65.24208914444 92.97270556756274 H 0.0 **** 0.06
26680 H 43.29346235425177 65.19855170101712 93.12999255110421 H 0.0 **** 0.06
26681 C 24.64782461228272 22.15112815323181 85.26331530707168 C 0.0 **** -0.24
26682 H 24.02932478278806 22.324702134406436 84.38363132572547 H 0.0 **** 0.06
26683 H 24.26366689246465 21.293135209393597 85.81502167850553 H 0.0 **** 0.06
26684 H 24.626249425056315 23.03327167991074 85.90282155909625 H 0.0 **** 0.06
26685 H 25.67450117877359 21.95327841633275 84.95189790890336 H 0.0 **** 0.06
26686 C 8.22603121874107 83.98195014445741 95.57990272407488 C 0.0 **** -0.24
26687 H 7.933382279281773 84.38885913353062 96.5477062290073 H 0.0 **** 0.06
26688 H 7.410069234674495 84.11453000974734 94.86925611580702 H 0.0 **** 0.06
26689 H 8.447473782165446 82.9199279807629 95.68430130743945 H 0.0 **** 0.06
26690 H 9.111822226995514 84.50478370505772 95.21846067757224 H 0.0 **** 0.06
26691 C 91.95837925794393 80.16284956353627 80.45966013657787 C 0.0 **** -0.24
26692 H 91.33308431502178 79.83290634978763 81.28929480201217 H 0.0 **** 0.06
26693 H 91.67361339147453 81.17433979956374 80.16977071460371 H 0.0 **** 0.06
26694 H 91.82172209891166 79.48921486268301 79.6124315954394 H 0.0 **** 0.06
26695 H 93.00396673802805 80.15204093085711 80.76656554349103 H 0.0 **** 0.06
26696 C 48.260352221385176 0.5685612548275767 0.6788973642252643 C 0.0 **** -0.24
26697 H 47.433148049009276 -0.11781112403961203 0.8628382356557154 H 0.0 **** 0.06
26698 H 49.1664150165808 -0.0029244337734173342 0.47641944016041293 H 0.0 **** 0.06
26699 H 48.413087093071795 1.1952314970667821 1.556935727537791 H 0.0 **** 0.06
26700 H 48.026869534104065 1.1960903283571263 -0.1803907012623256 H 0.0 **** 0.06
26701 C 99.53833914313782 81.12657397006973 94.52355497111438 C 0.0 **** -0.24
26702 H 99.8526966497281 82.1286469483122 94.23225949666619 H 0.0 **** 0.06
26703 H 98.46841593291123 81.01592400016546 94.3475695603544 H 0.0 **** 0.06
26704 H 99.75144374382396 80.97280248952595 95.5809511460115 H 0.0 **** 0.06
26705 H 100.08203256580339 80.38940480601204 93.9329408533547 H 0.0 **** 0.06
26706 C 80.1847919720002 9.89551236043459 38.522469860824195 C 0.0 **** -0.24
26707 H 79.79552541040971 9.130116387686172 39.192782050413385 H 0.0 **** 0.06
26708 H 81.27415635396949 9.872530639966673 38.538313275030795 H 0.0 **** 0.06
26709 H 79.83660821280193 10.875976795430105 38.84851827779269 H 0.0 **** 0.06
26710 H 79.83174326211713 9.70434991036382 37.50857511612974 H 0.0 **** 0.06
26711 C 105.41263810804591 30.292250853768024 51.69308925769832 C 0.0 **** -0.24
26712 H 104.75750218633652 31.078472613498235 52.068116226771 H 0.0 **** 0.06
26713 H 106.38983159129725 30.375598480252023 52.16984925577441 H 0.0 **** 0.06
26714 H 105.5242981803735 30.395359136712926 50.614610900964976 H 0.0 **** 0.06
26715 H 104.9787433754015 29.318052891537434 51.9216931569689 H 0.0 **** 0.06
26716 C 107.13773645574739 37.83068560150463 86.7891615403314 C 0.0 **** -0.24
26717 H 107.42700059002789 38.29684697752333 87.73044456527867 H 0.0 **** 0.06
26718 H 107.98248984556676 37.272420623359324 86.38507873214064 H 0.0 **** 0.06
26719 H 106.83802472607627 38.602947135019406 86.07988864732465 H 0.0 **** 0.06
26720 H 106.3015620379621 37.15211127100633 86.96120587449411 H 0.0 **** 0.06
26721 C 14.433708525244157 74.6714386967418 108.3346781035014 C 0.0 **** -0.24
26722 H 13.9233466990148 74.77912295463253 107.37775707619718 H 0.0 **** 0.06
26723 H 14.636307335724197 75.65847818312852 108.75162150435642 H 0.0 **** 0.06
26724 H 15.372936651657483 74.13882276726537 108.18816285965582 H 0.0 **** 0.06
26725 H 13.80109062399049 74.10979658909227 109.02302959719947 H 0.0 **** 0.06
26726 C 35.26744423560578 10.135186580455922 93.10715521601242 C 0.0 **** -0.24
26727 H 36.30248927917681 9.801891789292256 93.19031395490956 H 0.0 **** 0.06
26728 H 34.808753740289234 9.678428217804878 92.2291017419841 H 0.0 **** 0.06
26729 H 35.24234940560723 11.220808801514067 93.00786944823125 H 0.0 **** 0.06
26730 H 34.71740712855268 9.83912960962482 94.00081871985648 H 0.0 **** 0.06
26731 C 1.5949025378293413 12.027293697833045 73.06331696350102 C 0.0 **** -0.24
26732 H 1.712470456137325 10.957617948739667 73.23704821560898 H 0.0 **** 0.06
26733 H 2.5750017175076607 12.48251496710293 72.92320942818304 H 0.0 **** 0.06
26734 H 1.1024993464048265 12.482310170701766 73.9235362097487 H 0.0 **** 0.06
26735 H 0.988705351260009 12.185627183452453 72.1719049437879 H 0.0 **** 0.06
26736 C 76.49902765393307 8.700315738561457 45.19505587766139 C 0.0 **** -0.24
26737 H 77.27850190578076 9.045093106774118 44.51498788753139 H 0.0 **** 0.06
26738 H 76.92899378746992 8.528730621358775 46.18212308233092 H 0.0 **** 0.06
26739 H 76.07304671146633 7.771551589690404 44.81691265493322 H 0.0 **** 0.06
26740 H 75.71800104651894 9.457847990142085 45.265086798586935 H 0.0 **** 0.06
26741 C 97.1682987915299 109.79920345838877 114.82500601973942 C 0.0 **** -0.24
26742 H 97.96255987637008 109.50876559828478 115.51210797580599 H 0.0 **** 0.06
26743 H 96.39284747714692 110.33646237569762 115.37270227398162 H 0.0 **** 0.06
26744 H 96.73897406696796 108.90683409374705 114.36821806827432 H 0.0 **** 0.06
26745 H 97.57815138927532 110.44485082813915 114.04824138797137 H 0.0 **** 0.06
26746 C 9.611777978466211 18.57097025335952 3.4348116025961843 C 0.0 **** -0.24
26747 H 9.571576491190353 17.983735562640206 4.352228751137147 H 0.0 **** 0.06
26748 H 10.18704794522813 18.031117093101884 2.682562970275086 H 0.0 **** 0.06
26749 H 10.087779631832817 19.529755091886372 3.6375576454469183 H 0.0 **** 0.06
26750 H 8.599443742349791 18.73864608864406 3.066803193427532 H 0.0 **** 0.06
26751 C 91.82739744002649 4.462700214360154 87.32486972450059 C 0.0 **** -0.24
26752 H 92.30263234685125 5.406995519432428 87.58984539356746 H 0.0 **** 0.06
26753 H 92.19259722656187 4.132086917596382 86.35280650688838 H 0.0 **** 0.06
26754 H 90.74671670705268 4.60044812360195 87.28026395498415 H 0.0 **** 0.06
26755 H 92.06642809065252 3.712280253913093 88.07843471682841 H 0.0 **** 0.06
26756 C 96.05474546155497 50.44566095657518 67.81693200845672 C 0.0 **** -0.24
26757 H 96.86202648158229 50.54876146402316 68.54105114425221 H 0.0 **** 0.06
26758 H 96.17565226700754 49.511389380716764 67.26729465696314 H 0.0 **** 0.06
26759 H 96.08331320746606 51.28340501471334 67.11981883903087 H 0.0 **** 0.06
26760 H 95.09758635814762 50.43914838333558 68.33820927842334 H 0.0 **** 0.06
26761 C 96.53379068526442 13.584408327263105 16.126906277937223 C 0.0 **** -0.24
26762 H 97.60030136996227 13.78189511935139 16.235694613772722 H 0.0 **** 0.06
26763 H 96.21211881182796 13.870550490952468 15.12448473239047 H 0.0 **** 0.06
26764 H 95.98000512988392 14.1643390223486 16.864931947070232 H 0.0 **** 0.06
26765 H 96.34297293062264 12.522425599845434 16.280945972265386 H 0.0 **** 0.06
26766 C 105.22068215671408 10.21843294185555 54.869927111948755 C 0.0 **** -0.24
26767 H 104.84043570543167 9.460820998538743 55.55437629404986 H 0.0 **** 0.06
26768 H 106.28989687583788 10.35211994602071 55.0330056527836 H 0.0 **** 0.06
26769 H 104.70449284686597 11.16208181214941 55.048427562931494 H 0.0 **** 0.06
26770 H 105.04688083210044 9.899636803856904 53.84187549673473 H 0.0 **** 0.06
26771 C 77.31907909963124 100.41239339771172 83.09596070907924 C 0.0 **** -0.24
26772 H 78.25536465270147 100.46048552587897 82.53929247986184 H 0.0 **** 0.06
26773 H 76.83699971524297 101.38954838972407 83.08245093118649 H 0.0 **** 0.06
26774 H 77.52521422100551 100.12310453875804 84.12680224607635 H 0.0 **** 0.06
26775 H 76.66130572582637 99.67548480249826 82.63652322726932 H 0.0 **** 0.06
26776 C 8.05538466566226 92.4896343875289 89.63865253904146 C 0.0 **** -0.24
26777 H 7.402509015303153 93.17933154755744 90.17470220663648 H 0.0 **** 0.06
26778 H 7.497382107312376 91.58984526939068 89.37822655331576 H 0.0 **** 0.06
26779 H 8.899434710036203 92.22210852611198 90.27421794996161 H 0.0 **** 0.06
26780 H 8.421267322844372 92.96735055744847 88.72948746049974 H 0.0 **** 0.06
26781 C 33.78438554336822 93.41242751571556 63.210135238396674 C 0.0 **** -0.24
26782 H 34.439613876507224 94.058263679774 62.626614563898045 H 0.0 **** 0.06
26783 H 34.120959502383414 92.37911576215316 63.12031423720123 H 0.0 **** 0.06
26784 H 32.7643713237228 93.49637595797816 62.83651302800084 H 0.0 **** 0.06
26785 H 33.81454584158712 93.7145276385611 64.25668948906181 H 0.0 **** 0.06
26786 C 7.135237008755226 58.9918012364343 102.13963721100382 C 0.0 **** -0.24
26787 H 7.459287043970988 58.333038497588575 101.33339329858785 H 0.0 **** 0.06
26788 H 6.564617376100784 58.41794202539688 102.86940482469424 H 0.0 **** 0.06
26789 H 6.5093908020173785 59.78513423217561 101.7310527731934 H 0.0 **** 0.06
26790 H 8.008550598880333 59.42929303316561 102.62270679962211 H 0.0 **** 0.06
26791 C 114.9308525149577 4.68182441922022 41.62010680797005 C 0.0 **** -0.24
26792 H 114.99406169626448 5.7640859013369266 41.73503144270399 H 0.0 **** 0.06
26793 H 115.7498674302631 4.334609075041158 40.990437829413644 H 0.0 **** 0.06
26794 H 113.97918228057684 4.422030242499744 41.156608469180796 H 0.0 **** 0.06
26795 H 114.9988207020404 4.208360941132341 42.599967345416175 H 0.0 **** 0.06
26796 C 11.311969614667987 21.36360183425565 12.083720390652083 C 0.0 **** -0.24
26797 H 12.227412144935556 20.909959863583254 11.70486968384758 H 0.0 **** 0.06
26798 H 10.566601665883638 20.586825907770272 12.255224797722516 H 0.0 **** 0.06
26799 H 10.931825921323707 22.077260105205816 11.352693293552079 H 0.0 **** 0.06
26800 H 11.522045100009166 21.87852294216547 13.020820955958609 H 0.0 **** 0.06
26801 C 12.030357823953608 39.70088361474123 11.440977143072246 C 0.0 **** -0.24
26802 H 13.036677657814906 39.33611150838058 11.64613233233402 H 0.0 **** 0.06
26803 H 11.392409912126766 39.51053091852879 12.30471515023541 H 0.0 **** 0.06
26804 H 11.626849500557626 39.184523465862156 10.570619671067107 H 0.0 **** 0.06
26805 H 12.065205609812523 40.77215820604252 11.244136300314864 H 0.0 **** 0.06
26806 C 39.917820465091765 38.18098591085601 105.52885455659566 C 0.0 **** -0.24
26807 H 39.57596380758332 39.21430266638714 105.58508136948649 H 0.0 **** 0.06
26808 H 39.39791065824576 37.58485992727998 106.27852084551091 H 0.0 **** 0.06
26809 H 40.991519694451654 38.143397887483786 105.71571582073204 H 0.0 **** 0.06
26810 H 39.70881112836534 37.78166074303712 104.53671422523553 H 0.0 **** 0.06
26811 C 113.08785778796538 94.01439109911684 98.34363657057742 C 0.0 **** -0.24
26812 H 112.95401666997918 94.99547292232862 98.80046480530763 H 0.0 **** 0.06
26813 H 114.02551080807538 93.57860847908944 98.6881511117723 H 0.0 **** 0.06
26814 H 113.11288200641758 94.11959299306875 97.25900930017065 H 0.0 **** 0.06
26815 H 112.25984401883647 93.36613988667372 98.6274330272301 H 0.0 **** 0.06
26816 C 43.00564529074411 55.755946527668044 68.28796115292175 C 0.0 **** -0.24
26817 H 42.465671668666744 56.303353869909586 67.51541170345502 H 0.0 **** 0.06
26818 H 44.07192338646854 55.76369079277356 68.0604044475067 H 0.0 **** 0.06
26819 H 42.648664112257634 54.726058117296674 68.32016869964605 H 0.0 **** 0.06
26820 H 42.836408863702815 56.228889894525366 69.25452697043761 H 0.0 **** 0.06
26821 C 81.99005184681886 48.89020114235447 83.43254301546776 C 0.0 **** -0.24
26822 H 81.83020961150152 48.28785091182854 82.53829102496553 H 0.0 **** 0.06
26823 H 81.4491442930213 49.83216910017623 83.3376304459928 H 0.0 **** 0.06
26824 H 83.05549055297035 49.09320785463899 83.54773282720228 H 0.0 **** 0.06
26825 H 81.62675682451066 48.34849143905595 84.30472314304862 H 0.0 **** 0.06
26826 C 88.91821909436663 59.87956006635073 111.42093725174131 C 0.0 **** -0.24
26827 H 89.98806366340469 60.03534456131751 111.28637987685437 H 0.0 **** 0.06
26828 H 88.36770035252448 60.53312828564206 110.74336973955943 H 0.0 **** 0.06
26829 H 88.64489000751351 60.10956573553947 112.45095598636411 H 0.0 **** 0.06
26830 H 88.67222235402397 58.840201682903974 111.20304340418723 H 0.0 **** 0.06
26831 C 105.05810132525238 83.14148760194911 85.2444711590789 C 0.0 **** -0.24
26832 H 105.47091935299272 82.54128891778245 86.05631343201085 H 0.0 **** 0.06
26833 H 105.27824692088737 82.66261958067551 84.29083640316193 H 0.0 **** 0.06
26834 H 105.50450072992581 84.13584221532557 85.26468150757066 H 0.0 **** 0.06
26835 H 103.97803121944904 83.22509186823189 85.36892963562198 H 0.0 **** 0.06
26836 C 58.49392871433483 22.30372522508847 59.741897592794146 C 0.0 **** -0.24
26837 H 59.458687963704136 22.363110606220346 59.238215227009675 H 0.0 **** 0.06
26838 H 57.98574085517569 23.265398060139916 59.668165328313876 H 0.0 **** 0.06
26839 H 58.647696037399726 22.053702748891226 60.79205490877871 H 0.0 **** 0.06
26840 H 57.88420508292387 21.53318153105309 59.27032950538165 H 0.0 **** 0.06
26841 C 30.722245269644645 91.99568809309051 21.106596248156066 C 0.0 **** -0.24
26842 H 29.985948773538354 91.93348270480715 21.907729762742093 H 0.0 **** 0.06
26843 H 30.415702406432814 92.75983431501925 20.39184732187365 H 0.0 **** 0.06
26844 H 30.792496853246547 91.03245003802857 20.601300167963156 H 0.0 **** 0.06
26845 H 31.693556346575207 92.25809638658029 21.525876159925005 H 0.0 **** 0.06
26846 C 67.99389993282975 66.32914212091745 83.15862001473272 C 0.0 **** -0.24
26847 H 68.86576674322725 66.67297203203455 83.71558612704092 H 0.0 **** 0.06
26848 H 67.61804729184013 65.408292179987 83.6041591516132 H 0.0 **** 0.06
26849 H 68.2742693435788 66.1446059498833 82.12202061866668 H 0.0 **** 0.06
26850 H 67.21678572603551 67.0939056953411 83.19419054032406 H 0.0 **** 0.06
26851 C 7.684123988852576 108.72281216867464 17.015913732609988 C 0.0 **** -0.24
26852 H 7.618497624173003 107.76553929079199 17.532928022363876 H 0.0 **** 0.06
26853 H 8.310590060413872 109.40398518787839 17.591039365394693 H 0.0 **** 0.06
26854 H 6.6853799013639446 109.14668431314249 16.910521002503344 H 0.0 **** 0.06
26855 H 8.120484659812604 108.57260618994081 16.028333100542 H 0.0 **** 0.06
26856 C 109.71418754051024 81.26129968240156 18.69190204399223 C 0.0 **** -0.24
26857 H 110.76393219208674 81.12587136808372 18.95396568988498 H 0.0 **** 0.06
26858 H 109.5048858947155 80.74148131933623 17.756454711157488 H 0.0 **** 0.06
26859 H 109.50321528075554 82.323555720853 18.57268492253297 H 0.0 **** 0.06
26860 H 109.08681364749654 80.85266169646104 19.48352753046413 H 0.0 **** 0.06
26861 C 40.67770258502787 16.405828507330142 82.15939993051995 C 0.0 **** -0.24
26862 H 41.282716180922876 16.75979275975584 82.99428186050181 H 0.0 **** 0.06
26863 H 39.927080441310466 17.15614519851627 81.91124429582044 H 0.0 **** 0.06
26864 H 40.18427888948375 15.474573309906447 82.43720339736296 H 0.0 **** 0.06
26865 H 41.31888426684523 16.232693139891637 81.29426338360702 H 0.0 **** 0.06
26866 C 107.32877233430551 97.00329752117727 7.422577828125913 C 0.0 **** -0.24
26867 H 107.19996401333745 97.92099036674924 6.847531482192149 H 0.0 **** 0.06
26868 H 107.18084284799372 97.21524297660201 8.481331310562357 H 0.0 **** 0.06
26869 H 108.33542340514565 96.61605314746495 7.265777414855249 H 0.0 **** 0.06
26870 H 106.59940727757566 96.2634322955119 7.093596068522523 H 0.0 **** 0.06
26871 C 66.19443062840352 1.7121401806129768 92.00993116605338 C 0.0 **** -0.24
26872 H 66.45996615551607 1.1480680841656579 91.11528398650762 H 0.0 **** 0.06
26873 H 65.81967254936063 2.6941387652003073 91.72008091756646 H 0.0 **** 0.06
26874 H 67.07559344672191 1.8301414592249046 92.63950536486414 H 0.0 **** 0.06
26875 H 65.4225305240897 1.1756336388455964 92.5611578808101 H 0.0 **** 0.06
26876 C 6.842337021993018 52.177788862146286 5.488538851231647 C 0.0 **** -0.24
26877 H 6.373537554682571 51.216868993783066 5.2760534583356975 H 0.0 **** 0.06
26878 H 7.241795825244623 52.16978047078638 6.5031981818083455 H 0.0 **** 0.06
26879 H 6.101640502425724 52.97172968114545 5.396177753571504 H 0.0 **** 0.06
26880 H 7.652052272668499 52.35191417461384 4.78050177196168 H 0.0 **** 0.06
26881 C 107.47990125661974 30.84621120552538 81.72666552282439 C 0.0 **** -0.24
26882 H 106.98559255360959 30.06317544756888 82.30345230589504 H 0.0 **** 0.06
26883 H 108.10443252599237 30.391120850220204 80.95689444013465 H 0.0 **** 0.06
26884 H 108.10146637300787 31.447121716084354 82.39083218554808 H 0.0 **** 0.06
26885 H 106.7285048863096 31.481396576637934 81.2576569942841 H 0.0 **** 0.06
26886 C 106.72687106591275 62.73482353326605 8.922296118930689 C 0.0 **** -0.24
26887 H 106.52975049438072 63.473041780519736 9.699757548611089 H 0.0 **** 0.06
26888 H 106.64125968190893 63.20692537269022 7.942951143735456 H 0.0 **** 0.06
26889 H 106.00239829326492 61.92409162538189 8.999516200129733 H 0.0 **** 0.06
26890 H 107.73349480557553 62.33608661679884 9.045991120087251 H 0.0 **** 0.06
26891 C 22.251874181590495 112.74224191856209 11.42554280489857 C 0.0 **** -0.24
26892 H 21.182972968089558 112.85079535198193 11.607960689313416 H 0.0 **** 0.06
26893 H 22.431460972888942 111.83646621227659 10.84614575986464 H 0.0 **** 0.06
26894 H 22.77752698371711 112.6761935673404 12.377810979584979 H 0.0 **** 0.06
26895 H 22.614418915728095 113.60769265821438 10.870256988461023 H 0.0 **** 0.06
26896 C 88.37528542460518 114.67383557790043 9.792098302771535 C 0.0 **** -0.24
26897 H 87.8177395429779 115.60086419682736 9.9243838792529 H 0.0 **** 0.06
26898 H 88.49598712096105 114.47096957678477 8.728243323450116 H 0.0 **** 0.06
26899 H 87.83132045513162 113.8526533490294 10.259828862952816 H 0.0 **** 0.06
26900 H 89.3564630611009 114.7706585315062 10.257288316457448 H 0.0 **** 0.06
26901 C 66.78367427226695 88.28373445768688 41.18549887443834 C 0.0 **** -0.24
26902 H 67.72405360528361 87.74057472230686 41.088838589742664 H 0.0 **** 0.06
26903 H 65.9553867309568 87.57482100462244 41.209404802125164 H 0.0 **** 0.06
26904 H 66.66365586166393 88.95505896688243 40.33550833417195 H 0.0 **** 0.06
26905 H 66.79232149010411 88.86254104375428 42.10908597210059 H 0.0 **** 0.06
26906 C 78.87433158524541 37.66101734422918 18.28889389962995 C 0.0 **** -0.24
26907 H 78.64751240026834 37.81466949471019 19.343805283183375 H 0.0 **** 0.06
26908 H 79.91390725150103 37.34909014111818 18.182715331652616 H 0.0 **** 0.06
26909 H 78.71669186713333 38.592371309694016 17.744094365736107 H 0.0 **** 0.06
26910 H 78.21928368468326 36.88889147162979 17.885255626932473 H 0.0 **** 0.06
26911 C 59.59166814149012 56.51523599497481 23.28986367469173 C 0.0 **** -0.24
26912 H 59.38426058900927 57.52721844525407 23.637074804073137 H 0.0 **** 0.06
26913 H 59.756408766484356 55.86348587672891 24.148258288624362 H 0.0 **** 0.06
26914 H 60.48267659945043 56.52223970902073 22.661707750072537 H 0.0 **** 0.06
26915 H 58.742640187085044 56.148673108713375 22.71213865407813 H 0.0 **** 0.06
26916 C 19.076519669865846 44.12935283246637 113.82142149875837 C 0.0 **** -0.24
26917 H 18.703922668700613 45.14565830701929 113.68876143642633 H 0.0 **** 0.06
26918 H 20.101229803717374 44.16437200891829 114.1922581249048 H 0.0 **** 0.06
26919 H 19.053571122206478 43.60734992882038 112.86504538401313 H 0.0 **** 0.06
26920 H 18.44787856897028 43.60247048085532 114.53795496589755 H 0.0 **** 0.06
26921 C 94.95078536856346 58.87492476943364 42.40122972056986 C 0.0 **** -0.24
26922 H 96.00899898880846 58.65011627949138 42.27563940472777 H 0.0 **** 0.06
26923 H 94.46184030529304 58.04752300472702 42.91538242648636 H 0.0 **** 0.06
26924 H 94.49092481775716 59.018093413148456 41.42334987864194 H 0.0 **** 0.06
26925 H 94.84048687216415 59.784994933467054 42.990933464760246 H 0.0 **** 0.06
26926 C 55.799399304579445 57.922950910535285 30.976932503296553 C 0.0 **** -0.24
26927 H 55.98722467085785 58.17064575111397 29.932817668709532 H 0.0 **** 0.06
26928 H 56.20050127592388 58.7107320416516 31.615495835815835 H 0.0 **** 0.06
26929 H 56.28518651633075 56.977207090400846 31.21816767196455 H 0.0 **** 0.06
26930 H 54.725811564692094 57.83250282245363 31.14171558221389 H 0.0 **** 0.06
26931 C 56.701085463767384 13.319383798442594 15.93024550967641 C 0.0 **** -0.24
26932 H 56.36859452794991 14.13043285450155 16.577733843089845 H 0.0 **** 0.06
26933 H 56.202357565148304 13.399241012974063 14.963509058711395 H 0.0 **** 0.06
26934 H 56.45353800536938 12.362084361404694 16.389011259014524 H 0.0 **** 0.06
26935 H 57.78061003386097 13.385773734201123 15.789170579167092 H 0.0 **** 0.06
26936 C 24.30977485905254 72.53162587575702 24.99148019181331 C 0.0 **** -0.24
26937 H 23.29564211816303 72.16331150340301 24.83498961155695 H 0.0 **** 0.06
26938 H 24.920736852656944 71.73976725469146 25.425131373412626 H 0.0 **** 0.06
26939 H 24.285189203125555 73.38506219217021 25.670500129874085 H 0.0 **** 0.06
26940 H 24.735932816935843 72.83921840978195 24.036946719376743 H 0.0 **** 0.06
26941 C 7.398594973122783 16.881733050026185 29.136218056243905 C 0.0 **** -0.24
26942 H 7.927906923429802 15.946447452817168 28.954843691468056 H 0.0 **** 0.06
26943 H 8.110847303343235 17.647537558650896 29.445609585020605 H 0.0 **** 0.06
26944 H 6.659671044820868 16.734141140143123 29.923773144905397 H 0.0 **** 0.06
26945 H 6.8973083402718345 17.199566593877833 28.221413389879018 H 0.0 **** 0.06
26946 C 33.297272410815765 116.668304357696 104.58343314486413 C 0.0 **** -0.24
26947 H 32.352827480291296 116.57673080300547 104.04736598401664 H 0.0 **** 0.06
26948 H 34.11304676902347 116.335177938201 103.94160609039827 H 0.0 **** 0.06
26949 H 33.26606896239133 116.0516459440261 105.48175809624581 H 0.0 **** 0.06
26950 H 33.45649476640557 117.71041891045962 104.86306245221027 H 0.0 **** 0.06
26951 C 50.9363380760652 14.089634071477754 82.84777413470371 C 0.0 **** -0.24
26952 H 50.66055054175242 14.172014876615112 83.89864879457568 H 0.0 **** 0.06
26953 H 50.744508573366346 15.038300048006409 82.34676290398212 H 0.0 **** 0.06
26954 H 50.346329522987986 13.303199308158298 82.37761542883152 H 0.0 **** 0.06
26955 H 51.99602499682308 13.844440552691264 82.76871211148114 H 0.0 **** 0.06
26956 C 65.89028512122735 60.414526966117705 80.74431401433509 C 0.0 **** -0.24
26957 H 65.88214391230653 61.458003134507294 81.05813901481244 H 0.0 **** 0.06
26958 H 66.20846244953978 60.350280584430635 79.70323350835716 H 0.0 **** 0.06
26959 H 64.88767744379308 59.99701771547225 80.84325291980758 H 0.0 **** 0.06
26960 H 66.58157180143161 59.85105734131366 81.37149477731683 H 0.0 **** 0.06
26961 C 31.231122514151195 50.04720376415423 59.055983948163366 C 0.0 **** -0.24
26962 H 30.433380576862362 50.09185761709894 58.315319560979724 H 0.0 **** 0.06
26963 H 31.186645075593617 50.93216009880863 59.69167024936464 H 0.0 **** 0.06
26964 H 32.19612141795716 50.01161704333546 58.54953975885996 H 0.0 **** 0.06
26965 H 31.10949781244625 49.15414747096007 59.66905887036379 H 0.0 **** 0.06
26966 C 28.577521162586777 91.78132798109033 31.53819029430899 C 0.0 **** -0.24
26967 H 29.0402842327058 91.61444712147119 30.565359835258832 H 0.0 **** 0.06
26968 H 27.524999574193117 92.02990579430133 31.401785207813703 H 0.0 **** 0.06
26969 H 29.083359028854915 92.60514477297426 32.04347438632226 H 0.0 **** 0.06
26970 H 28.66397092700379 90.87743868660209 32.14115923580451 H 0.0 **** 0.06
26971 C 68.82530155977955 43.604292238748485 67.57855986477267 C 0.0 **** -0.24
26972 H 68.86946169331117 43.07081248684773 68.52854736777499 H 0.0 **** 0.06
26973 H 68.38884113288415 44.591604060208795 67.73732940476137 H 0.0 **** 0.06
26974 H 68.21037005848038 43.04386704413531 66.87576850106751 H 0.0 **** 0.06
26975 H 69.83231276637636 43.71248127260333 67.17597134830496 H 0.0 **** 0.06
26976 C 86.38300744280173 94.80833947800244 83.08898464940421 C 0.0 **** -0.24
26977 H 86.65728529648266 95.74539738751719 82.60396905767999 H 0.0 **** 0.06
26978 H 87.25155034832699 94.15047250972594 83.12649818454585 H 0.0 **** 0.06
26979 H 85.58572449349151 94.32670015101411 82.52235738428959 H 0.0 **** 0.06
26980 H 86.03657137769926 95.0127561337294 84.10196532007413 H 0.0 **** 0.06
26981 C 90.00901523294735 33.04989185953502 51.29064323133974 C 0.0 **** -0.24
26982 H 89.43725818230888 33.0668752731286 52.21777176944386 H 0.0 **** 0.06
26983 H 90.94070393700181 33.60023011621433 51.42894015768127 H 0.0 **** 0.06
26984 H 89.4267189433165 33.51432491097909 50.49558985832408 H 0.0 **** 0.06
26985 H 90.23348485770902 32.017811492065725 51.02095177807445 H 0.0 **** 0.06
26986 C 98.10627832696343 116.30224875187206 48.41614264406391 C 0.0 **** -0.24
26987 H 98.71046022134664 115.39452850325989 48.436098314259624 H 0.0 **** 0.06
26988 H 97.28321515093458 116.206035347225 49.12426407127139 H 0.0 **** 0.06
26989 H 97.70751867486285 116.45045913135809 47.41226594556797 H 0.0 **** 0.06
26990 H 98.7249469661293 117.15621204732393 48.69102214291843 H 0.0 **** 0.06
26991 C 93.84529363268933 17.540812181037438 25.268487271149453 C 0.0 **** -0.24
26992 H 93.55116430178367 18.566994680529376 25.048893643682767 H 0.0 **** 0.06
26993 H 93.50257635482043 17.270643323694344 26.267362451936137 H 0.0 **** 0.06
26994 H 94.93004576956744 17.455135825327602 25.220339302121516 H 0.0 **** 0.06
26995 H 93.39485894539263 16.869691764024708 24.535624339934408 H 0.0 **** 0.06
26996 C 68.87599667229011 33.168185233612974 89.17996265365181 C 0.0 **** -0.24
26997 H 67.80703108989314 32.98198858648334 89.2827505276667 H 0.0 **** 0.06
26998 H 69.03170574497625 34.076675747667025 88.59677680941815 H 0.0 **** 0.06
26999 H 69.34353922561007 32.32581836205111 88.67187813627834 H 0.0 **** 0.06
27000 H 69.31980987435867 33.28955249762009 90.16760111873785 H 0.0 **** 0.06
27001 C 111.49613158129168 59.291403721428686 35.58947789383839 C 0.0 **** -0.24
27002 H 112.27704610265951 59.82800328477202 35.04961823726805 H 0.0 **** 0.06
27003 H 111.54302642974255 59.55025254322654 36.64703975917374 H 0.0 **** 0.06
27004 H 111.64283945045733 58.2183520261706 35.47043265226861 H 0.0 **** 0.06
27005 H 110.5211508839023 59.5717530532013 35.18901948002343 H 0.0 **** 0.06
27006 C 111.8581182806725 87.45381941032261 68.07006451721247 C 0.0 **** -0.24
27007 H 111.5734538637575 86.87744800673511 67.18898664133576 H 0.0 **** 0.06
27008 H 112.17085907313312 88.45219958373977 67.76507900714398 H 0.0 **** 0.06
27009 H 112.68246857048167 86.95380053146286 68.57869866482068 H 0.0 **** 0.06
27010 H 111.00618688943965 87.52883377866996 68.74530719340646 H 0.0 **** 0.06
27011 C 54.41625770022537 102.0118890573408 36.16094550158542 C 0.0 **** -0.24
27012 H 54.7105007973428 100.96516292652959 36.08315487462866 H 0.0 **** 0.06
27013 H 54.56245187487056 102.3542089731616 37.18613786855187 H 0.0 **** 0.06
27014 H 53.36548478728386 102.11450387481051 35.889931756711746 H 0.0 **** 0.06
27015 H 55.02666892009921 102.61108879549207 35.48636807820262 H 0.0 **** 0.06
27016 C 12.299040081335711 18.119118512851088 109.39811429199625 C 0.0 **** -0.24
27017 H 11.560135015685123 18.493900029926152 108.68907822387943 H 0.0 **** 0.06
27018 H 11.793031096844274 17.583415391446152 110.20072502368528 H 0.0 **** 0.06
27019 H 12.857302832378952 18.95699810425286 109.81614596132003 H 0.0 **** 0.06
27020 H 12.984286312009939 17.445020819184393 108.8848211695437 H 0.0 **** 0.06
27021 C 101.97681846242568 56.062005689944435 10.569588309799826 C 0.0 **** -0.24
27022 H 101.99783131673252 55.50351319758702 11.50652143596838 H 0.0 **** 0.06
27023 H 101.2492775836156 56.87078558020024 10.6460892454962 H 0.0 **** 0.06
27024 H 101.69549162598537 55.39436562026818 9.756108237073562 H 0.0 **** 0.06
27025 H 102.96460654084396 56.47738616530349 10.373770405818675 H 0.0 **** 0.06
27026 C 23.272077493809263 60.290169993769354 47.63174454698796 C 0.0 **** -0.24
27027 H 22.863526220358523 60.10703531519752 46.63754861219522 H 0.0 **** 0.06
27028 H 24.13948131271615 59.64901853703785 47.79096273411446 H 0.0 **** 0.06
27029 H 22.512810748588922 60.06875645648731 48.38165387958787 H 0.0 **** 0.06
27030 H 23.572020747129937 61.33498761115408 47.714576774143694 H 0.0 **** 0.06
27031 C 21.81304917988401 103.29875392815546 4.39118054386725 C 0.0 **** -0.24
27032 H 22.81626859710343 103.58116474049217 4.070017078105309 H 0.0 **** 0.06
27033 H 21.205333984047638 104.19619057858336 4.51131265796198 H 0.0 **** 0.06
27034 H 21.871420900940112 102.76871830311518 5.340724550417605 H 0.0 **** 0.06
27035 H 21.360277628787337 102.65181480803437 3.63974746808384 H 0.0 **** 0.06
27036 C 34.62622060316646 113.76208698637728 76.38234908444258 C 0.0 **** -0.24
27037 H 35.67113077160689 113.699218786475 76.08011368198027 H 0.0 **** 0.06
27038 H 34.29627899224929 112.79145598083633 76.75348515929079 H 0.0 **** 0.06
27039 H 34.017425057864436 114.05122795308992 75.52686540039883 H 0.0 **** 0.06
27040 H 34.52126083058499 114.50772655983786 77.17155636959694 H 0.0 **** 0.06
27041 C 14.635134848508187 55.41549701677491 93.68679914979705 C 0.0 **** -0.24
27042 H 15.165277129422734 55.81214243532537 92.82052691773427 H 0.0 **** 0.06
27043 H 15.143914533032628 54.52131725122345 94.04632622790729 H 0.0 **** 0.06
27044 H 13.613047830224446 55.16397896423908 93.40306726858367 H 0.0 **** 0.06
27045 H 14.617527252529015 56.16684648063929 94.4769200142614 H 0.0 **** 0.06
27046 C 109.00999434332256 111.63005282319354 30.31376796411186 C 0.0 **** -0.24
27047 H 109.86735551741172 111.34326077913407 29.704345990974133 H 0.0 **** 0.06
27048 H 109.34461366922702 111.85890624633 31.32581095240522 H 0.0 **** 0.06
27049 H 108.294644334819 110.80842140882089 30.343903107324977 H 0.0 **** 0.06
27050 H 108.53513389111161 112.51031340785579 29.879832656570045 H 0.0 **** 0.06
27051 C 33.39539542923178 14.793447704246535 13.311444232035143 C 0.0 **** -0.24
27052 H 32.816017563236066 15.64567062375109 12.95659590355687 H 0.0 **** 0.06
27053 H 33.05976580523919 13.889368606978426 12.802365880059856 H 0.0 **** 0.06
27054 H 33.25310543380443 14.679371522401592 14.385847842516526 H 0.0 **** 0.06
27055 H 34.45163628914489 14.958805044172799 13.100223654905577 H 0.0 **** 0.06
27056 C 46.554238650434456 74.41431853684668 75.00351651780869 C 0.0 **** -0.24
27057 H 46.306509329766016 73.72205341063585 75.80749293460798 H 0.0 **** 0.06
27058 H 45.70855224085125 75.07779419080808 74.82174595555784 H 0.0 **** 0.06
27059 H 46.777055323136665 73.85314952011274 74.09610865952652 H 0.0 **** 0.06
27060 H 47.425895103067774 75.00508814237963 75.28824510662878 H 0.0 **** 0.06
27061 C 78.72514979089567 25.194382297212883 57.69257435775768 C 0.0 **** -0.24
27062 H 79.50047266906992 25.576864292546148 57.02913039438354 H 0.0 **** 0.06
27063 H 77.82074538269381 24.9963856968092 57.11793713766943 H 0.0 **** 0.06
27064 H 78.51084891250807 25.932377247670075 58.46559282639544 H 0.0 **** 0.06
27065 H 79.06964462206025 24.270031038725023 58.15814941040426 H 0.0 **** 0.06
27066 C 48.44892257915086 24.472283044172052 95.31295801228129 C 0.0 **** -0.24
27067 H 48.8639187289224 23.7365136115411 94.62347954802362 H 0.0 **** 0.06
27068 H 47.368428877604714 24.34372001104179 95.37304831003948 H 0.0 **** 0.06
27069 H 48.67681176596555 25.47499638217598 94.95329377206366 H 0.0 **** 0.06
27070 H 48.8882404388585 24.3313537649515 96.30075189282462 H 0.0 **** 0.06
27071 C 87.1676505097152 22.95953429597725 25.425922561168875 C 0.0 **** -0.24
27072 H 87.54094465589571 22.111993844618027 24.850203281982317 H 0.0 **** 0.06
27073 H 86.86332142918661 23.754874231762557 24.74452088586267 H 0.0 **** 0.06
27074 H 87.95559274146694 23.326274081895406 26.084042577298135 H 0.0 **** 0.06
27075 H 86.31228008319681 22.64485516595238 26.024136961992866 H 0.0 **** 0.06
27076 C 31.05445587192395 20.01085549120728 52.337316807764836 C 0.0 **** -0.24
27077 H 30.897663645198236 19.0157635496019 51.9218915459615 H 0.0 **** 0.06
27078 H 32.046327690213275 20.064525048165024 52.785967933683025 H 0.0 **** 0.06
27079 H 30.30002256458198 20.209603787469348 53.09780836052943 H 0.0 **** 0.06
27080 H 30.973565009101094 20.752307731995884 51.54203494147518 H 0.0 **** 0.06
27081 C 104.03804156999072 113.01892104701345 107.23343318305996 C 0.0 **** -0.24
27082 H 103.71846099688935 112.03015647698766 107.56010083458014 H 0.0 **** 0.06
27083 H 103.17872220096942 113.68999730985034 107.21166386531928 H 0.0 **** 0.06
27084 H 104.47008136930134 112.94884867847493 106.23500719238308 H 0.0 **** 0.06
27085 H 104.78513072734387 113.40749402057368 107.92582600927778 H 0.0 **** 0.06
27086 C 18.0717170165654 41.824238286535206 21.77419297674775 C 0.0 **** -0.24
27087 H 17.148846099836362 41.27038324376902 21.948402242094197 H 0.0 **** 0.06
27088 H 17.924994038394516 42.86941083858252 22.04661667409882 H 0.0 **** 0.06
27089 H 18.342390275741536 41.7582488364308 20.720402037318504 H 0.0 **** 0.06
27090 H 18.87042314755689 41.39774085806637 22.382116903398696 H 0.0 **** 0.06
27091 C 13.129048056205818 108.68424498676364 105.86873103152499 C 0.0 **** -0.24
27092 H 13.504871270031884 108.89430966501791 104.86834430905998 H 0.0 **** 0.06
27093 H 12.071515873863063 108.94398484113361 105.92147462578771 H 0.0 **** 0.06
27094 H 13.685203719597297 109.27381585557546 106.59747243019513 H 0.0 **** 0.06
27095 H 13.254323980235625 107.62375694708925 106.08846053637558 H 0.0 **** 0.06
27096 C 20.824971427879007 58.56206593742485 93.35549718797611 C 0.0 **** -0.24
27097 H 20.11805655369011 59.339221607063735 93.64802489429255 H 0.0 **** 0.06
27098 H 20.496489152148968 57.60308736825556 93.75645289063303 H 0.0 **** 0.06
27099 H 21.812166707758166 58.802737763721666 93.75008750859573 H 0.0 **** 0.06
27100 H 20.87216820544066 58.50504879357294 92.26822010806427 H 0.0 **** 0.06
27101 C 105.72799374628559 103.03151563819887 45.26449604626895 C 0.0 **** -0.24
27102 H 104.96903041550084 102.84036457748667 46.023067660255826 H 0.0 **** 0.06
27103 H 105.37394388522546 102.6749082987568 44.29727587345648 H 0.0 **** 0.06
27104 H 106.64721696924192 102.5092367443215 45.53104515780749 H 0.0 **** 0.06
27105 H 105.92269402130762 104.10271626445598 45.208549553221324 H 0.0 **** 0.06
27106 C 4.256011086951432 73.53091609834911 71.9999638772695 C 0.0 **** -0.24
27107 H 5.333924417245655 73.37028453130716 72.03578800925152 H 0.0 **** 0.06
27108 H 3.8712873789275903 73.64034738914262 73.01444625161568 H 0.0 **** 0.06
27109 H 3.777590534000808 72.67708795874995 71.51928696130773 H 0.0 **** 0.06
27110 H 4.042339660489176 74.43542272116179 71.42961107995751 H 0.0 **** 0.06
27111 C 45.27288429999982 71.04973482651388 101.19276416120385 C 0.0 **** -0.24
27112 H 45.20060407451524 70.99863451389251 100.10692843648621 H 0.0 **** 0.06
27113 H 46.15741945879785 70.5059665060777 101.5239793686975 H 0.0 **** 0.06
27114 H 44.38327353902906 70.60293184654662 101.63746495585599 H 0.0 **** 0.06
27115 H 45.349212961048465 72.09213228091406 101.50333056697104 H 0.0 **** 0.06
27116 C 93.42185736049154 38.23629480028421 63.081430374854676 C 0.0 **** -0.24
27117 H 94.14876805189013 37.8629731853124 63.80340671584213 H 0.0 **** 0.06
27118 H 92.75141738488588 37.42744954597174 62.79018205347484 H 0.0 **** 0.06
27119 H 93.94465840507175 38.61067875822107 62.20130044938321 H 0.0 **** 0.06
27120 H 92.84379641243646 39.043498467532004 63.53127784317644 H 0.0 **** 0.06
27121 C 28.242735031925662 2.7462007799993273 85.44339669987096 C 0.0 **** -0.24
27122 H 27.78380441318849 3.405604650157102 86.18041313032171 H 0.0 **** 0.06
27123 H 29.295089182617545 2.600581597488002 85.69153553965305 H 0.0 **** 0.06
27124 H 28.161021600559636 3.19457610955925 84.45390421915366 H 0.0 **** 0.06
27125 H 27.73129473084856 1.7828963606095272 85.44935186711166 H 0.0 **** 0.06
27126 C 63.73235833819837 6.856233924121398 51.326268803246506 C 0.0 **** -0.24
27127 H 64.07022181359662 7.399799501710788 52.208593403764155 H 0.0 **** 0.06
27128 H 63.428737268613986 5.849898292208309 51.6156713588021 H 0.0 **** 0.06
27129 H 64.5460575060049 6.795979922158693 50.60247935027823 H 0.0 **** 0.06
27130 H 62.88620941193659 7.376932534221652 50.87894692311258 H 0.0 **** 0.06
27131 C 82.93120116742114 18.75576602971263 79.9434867667596 C 0.0 **** -0.24
27132 H 83.65860012380324 19.53550646220924 79.71561479546929 H 0.0 **** 0.06
27133 H 82.70961837984896 18.19075952923005 79.03803732484869 H 0.0 **** 0.06
27134 H 82.01657896106826 19.211602522639986 80.32132564439715 H 0.0 **** 0.06
27135 H 83.34279435485519 18.085649070707827 80.69880611982731 H 0.0 **** 0.06
27136 C 114.97343588392768 10.89909439015912 108.88311327602648 C 0.0 **** -0.24
27137 H 114.98549873825993 10.20908114753027 108.0398036418658 H 0.0 **** 0.06
27138 H 115.93689674730354 11.404999009888513 108.95208932392379 H 0.0 **** 0.06
27139 H 114.78662374916618 10.34572087082725 109.80309039720302 H 0.0 **** 0.06
27140 H 114.18429014106536 11.637005326991726 108.73667746691368 H 0.0 **** 0.06
27141 C 35.757719931449294 61.32284308229734 67.83586849424191 C 0.0 **** -0.24
27142 H 35.76684311205178 60.501135252368925 67.12030722546737 H 0.0 **** 0.06
27143 H 35.59443970311272 62.262337735664346 67.30749613408096 H 0.0 **** 0.06
27144 H 36.7147177667624 61.36061620870032 68.35775582742579 H 0.0 **** 0.06
27145 H 34.95598576350602 61.16641394997407 68.55805632053858 H 0.0 **** 0.06
27146 C 45.94771490665244 31.38110802205287 12.565926515370819 C 0.0 **** -0.24
27147 H 45.452386776183644 30.726180355218986 13.283490325835757 H 0.0 **** 0.06
27148 H 47.01961202334579 31.18377570881193 12.574614868538944 H 0.0 **** 0.06
27149 H 45.76671282331286 32.420630364647614 12.83892742832974 H 0.0 **** 0.06
27150 H 45.550645184850694 31.191969640675858 11.568468602002753 H 0.0 **** 0.06
27151 C 48.71631766335591 109.22284071984555 104.4168242661755 C 0.0 **** -0.24
27152 H 49.08408630912797 110.14346548800567 104.8711911790322 H 0.0 **** 0.06
27153 H 47.91025497789676 109.45821840472347 103.72143711306887 H 0.0 **** 0.06
27154 H 48.343555936799035 108.55767510700501 105.19588420048632 H 0.0 **** 0.06
27155 H 49.52955756299491 108.73341521395841 103.87989729902586 H 0.0 **** 0.06
27156 C 50.30571672737537 69.30133915255698 89.92094312305494 C 0.0 **** -0.24
27157 H 50.5007099555597 68.92811490715741 88.91537100151942 H 0.0 **** 0.06
27158 H 49.85768376013746 68.50978254679438 90.52223141364624 H 0.0 **** 0.06
27159 H 49.620681189613265 70.14772159393493 89.86759462454899 H 0.0 **** 0.06
27160 H 51.24238723170575 69.61989678616789 90.37853832922906 H 0.0 **** 0.06
27161 C 54.41703003715135 22.709370972281704 4.588167643027532 C 0.0 **** -0.24
27162 H 55.09208167065622 23.565500609134176 4.613981842572514 H 0.0 **** 0.06
27163 H 53.53675736361964 22.923246269482604 5.194755122251877 H 0.0 **** 0.06
27164 H 54.92820363747676 21.832225708589874 4.984713595008429 H 0.0 **** 0.06
27165 H 54.11225931328886 22.518406195975786 3.5591063047257876 H 0.0 **** 0.06
27166 C 11.103788240564043 90.77229415103105 11.822351383498557 C 0.0 **** -0.24
27167 H 11.112980083079805 89.94770861523207 11.109907602977358 H 0.0 **** 0.06
27168 H 11.157914420840413 91.71795613307773 11.283931770634666 H 0.0 **** 0.06
27169 H 11.96046233751926 90.68411754057627 12.490938233074132 H 0.0 **** 0.06
27170 H 10.1829266444241 90.73762964625871 12.404988740825644 H 0.0 **** 0.06
27171 C 53.43616343393508 10.619662572695201 75.48758272855716 C 0.0 **** -0.24
27172 H 52.77364780342174 11.274483043108596 74.9220165291496 H 0.0 **** 0.06
27173 H 52.84946233758802 10.029833520465704 76.19162140622404 H 0.0 **** 0.06
27174 H 54.16168688851619 11.222690180669492 76.03486462102848 H 0.0 **** 0.06
27175 H 53.960573527172954 9.953708659248058 74.80229927974449 H 0.0 **** 0.06
27176 C 21.33153086508036 83.32915815124738 63.156004162211666 C 0.0 **** -0.24
27177 H 21.198550606289952 84.37770586385508 62.891283821480464 H 0.0 **** 0.06
27178 H 21.42249532855249 82.7339714693496 62.246058347417495 H 0.0 **** 0.06
27179 H 20.469834091343106 82.98660256527921 63.729960062016 H 0.0 **** 0.06
27180 H 22.23535491992759 83.21762397104399 63.75514703486083 H 0.0 **** 0.06
27181 C 82.26570150822718 116.09770992947068 85.93823528835742 C 0.0 **** -0.24
27182 H 81.33456838627714 116.20708466673673 85.3831540489146 H 0.0 **** 0.06
27183 H 82.22194966863293 116.70377495640079 86.84363960479675 H 0.0 **** 0.06
27184 H 83.0997505307023 116.42872578410436 85.31864691273074 H 0.0 **** 0.06
27185 H 82.40700446981558 115.05142843227696 86.20836755277242 H 0.0 **** 0.06
27186 C 64.00715561059175 46.85838853220207 33.61064646237023 C 0.0 **** -0.24
27187 H 64.08465833527976 47.87524066373504 33.226802756217324 H 0.0 **** 0.06
27188 H 64.90938630148946 46.30386690113306 33.35339273034455 H 0.0 **** 0.06
27189 H 63.14031207325197 46.36807270648569 33.16673015972282 H 0.0 **** 0.06
27190 H 63.8931514983968 46.88628726930972 34.69372338223121 H 0.0 **** 0.06
27191 C 61.447854484880395 52.802583248422025 49.7527334127752 C 0.0 **** -0.24
27192 H 60.44973037777538 53.21699113143419 49.61334439355838 H 0.0 **** 0.06
27193 H 62.06348528188937 53.51533489267597 50.302532330459144 H 0.0 **** 0.06
27194 H 61.900034163470366 52.60666549050275 48.78085446206242 H 0.0 **** 0.06
27195 H 61.379658266109175 51.87154170394689 50.31585765505673 H 0.0 **** 0.06
27196 C 0.15761157826707972 22.301184444351378 115.27157946718748 C 0.0 **** -0.24
27197 H 1.029747085128264 21.779249724324018 114.87585878323748 H 0.0 **** 0.06
27198 H -0.5308540271756783 22.526225976629462 114.45749940923592 H 0.0 **** 0.06
27199 H 0.4756616297223957 23.229347927881747 115.74696006050834 H 0.0 **** 0.06
27200 H -0.3412475818806229 21.669091022186933 116.0063722421028 H 0.0 **** 0.06
27201 C 38.34434418045848 3.5248573523872384 33.84318152732361 C 0.0 **** -0.24
27202 H 39.20208380478676 2.8540331860081913 33.88930771595059 H 0.0 **** 0.06
27203 H 38.6861589564393 4.53420924370254 33.613369857899926 H 0.0 **** 0.06
27204 H 37.83148903420856 3.5251708224009537 34.80444652977502 H 0.0 **** 0.06
27205 H 37.66077993435963 3.1857993056526936 33.06524805526203 H 0.0 **** 0.06
27206 C 62.8170119996241 4.530228507015384 40.88824498965181 C 0.0 **** -0.24
27207 H 63.04306355720473 3.5124220526766603 40.56876770139661 H 0.0 **** 0.06
27208 H 61.737337416683346 4.646559132284036 40.99261482792235 H 0.0 **** 0.06
27209 H 63.18829288892641 5.235189784529144 40.14491665005795 H 0.0 **** 0.06
27210 H 63.29768482501976 4.725016572820097 41.846198081435546 H 0.0 **** 0.06
27211 C 19.472044045845706 7.344212806401629 111.23284269440663 C 0.0 **** -0.24
27212 H 19.328455561372323 8.27016102826434 110.67627716985112 H 0.0 **** 0.06
27213 H 18.52964382042464 7.049192489334388 111.6949593766532 H 0.0 **** 0.06
27214 H 20.22419594157941 7.49770357463629 112.0059720576476 H 0.0 **** 0.06
27215 H 19.804161351089704 6.559905308853587 110.55273696494673 H 0.0 **** 0.06
27216 C 42.91422617066914 37.62475158283635 17.974612636740915 C 0.0 **** -0.24
27217 H 42.4549260838636 38.54446123433209 17.612210159234138 H 0.0 **** 0.06
27218 H 42.13455698970574 36.90501418058193 18.228128170177687 H 0.0 **** 0.06
27219 H 43.50953243517108 37.842010593616635 18.86165658065266 H 0.0 **** 0.06
27220 H 43.55557659679258 37.208262755677694 17.198480818594568 H 0.0 **** 0.06
27221 C 55.79555355339113 65.93756729547607 8.916486016173977 C 0.0 **** -0.24
27222 H 54.74512581118091 65.64521200017805 8.900518413430206 H 0.0 **** 0.06
27223 H 56.36230209694696 65.22026279258517 9.509831855955781 H 0.0 **** 0.06
27224 H 55.88932652392532 66.93037225190716 9.35772061835165 H 0.0 **** 0.06
27225 H 56.18246418110169 65.95442165961117 7.898037190392188 H 0.0 **** 0.06
27226 C 49.25585535056038 86.6791204578409 77.28448147075437 C 0.0 **** -0.24
27227 H 50.10925440549788 87.35669634413483 77.31770736229501 H 0.0 **** 0.06
27228 H 48.33300828229636 87.25865379324713 77.26534110388255 H 0.0 **** 0.06
27229 H 49.26583489575512 86.03968331179385 78.1669770749194 H 0.0 **** 0.06
27230 H 49.31658482525768 86.06254799770451 76.38834854087932 H 0.0 **** 0.06
27231 C 34.37051237421336 84.77341607024397 75.34650644400622 C 0.0 **** -0.24
27232 H 34.246616492893565 84.93563676025673 76.41717409428747 H 0.0 **** 0.06
27233 H 35.3547840980707 85.12848583919737 75.03788091866701 H 0.0 **** 0.06
27234 H 33.60012435650128 85.31963706400893 74.80425856262747 H 0.0 **** 0.06
27235 H 34.28309289175804 83.70838733494628 75.12897102398227 H 0.0 **** 0.06
27236 C 24.373730480014956 3.323250398715615 40.193134187104164 C 0.0 **** -0.24
27237 H 24.70335764490028 3.9103702801538844 39.33677091014346 H 0.0 **** 0.06
27238 H 24.384174313397352 2.264719929873621 39.93464028341754 H 0.0 **** 0.06
27239 H 23.361454108731152 3.6201353253468085 40.46913764203117 H 0.0 **** 0.06
27240 H 25.044482908126724 3.4989182577093914 41.03435114298202 H 0.0 **** 0.06
27241 C 54.86844893715739 16.545608539491212 20.728110942366516 C 0.0 **** -0.24
27242 H 55.227479381377606 16.896516631357315 21.69486816766452 H 0.0 **** 0.06
27243 H 54.19208983345889 15.702925333034216 20.874423596794326 H 0.0 **** 0.06
27244 H 55.715323463742244 16.229676879514585 20.11854657716462 H 0.0 **** 0.06
27245 H 54.338580447208884 17.353219441194256 20.222179099094202 H 0.0 **** 0.06
27246 C 80.86432825192773 13.700667565740247 92.13497270677627 C 0.0 **** -0.24
27247 H 80.50139495581385 13.789776038927158 91.11172152223219 H 0.0 **** 0.06
27248 H 81.01698445881829 12.648873349625603 92.37615511473771 H 0.0 **** 0.06
27249 H 80.13025155625203 14.128269297797374 92.81886319892232 H 0.0 **** 0.06
27250 H 81.80749577630868 14.23813896855006 92.23409630074488 H 0.0 **** 0.06
27251 C 40.194777427093555 42.878954344422226 101.58983360035495 C 0.0 **** -0.24
27252 H 39.18424224889421 43.28611765755454 101.54914348708527 H 0.0 **** 0.06
27253 H 40.40354138302155 42.52372581918365 102.59943219700685 H 0.0 **** 0.06
27254 H 40.91013329937235 43.656936963280174 101.32307717815866 H 0.0 **** 0.06
27255 H 40.28082286986657 42.050702201090076 100.8873811385327 H 0.0 **** 0.06
27256 C 52.440913250542394 90.23304867421427 26.979421839912646 C 0.0 **** -0.24
27257 H 53.330896389395264 90.30172639179546 26.3539489442849 H 0.0 **** 0.06
27258 H 52.73093474213323 90.27590582125842 28.029626491260892 H 0.0 **** 0.06
27259 H 51.931232033704475 89.28976369218651 26.781794678107183 H 0.0 **** 0.06
27260 H 51.77156603993586 91.06197444541351 26.752051504248037 H 0.0 **** 0.06
27261 C 9.73927398283655 108.99733736296074 72.72843208882762 C 0.0 **** -0.24
27262 H 10.07026932896116 108.02227664784661 73.08769344430476 H 0.0 **** 0.06
27263 H 10.334907066719353 109.2853769488264 71.86134012241564 H 0.0 **** 0.06
27264 H 9.86540447181963 109.7370564015445 73.51888562813699 H 0.0 **** 0.06
27265 H 8.688414495435438 108.94310823668083 72.44559033950796 H 0.0 **** 0.06
27266 C 15.382753634932499 40.81675474955574 7.9308608148892645 C 0.0 **** -0.24
27267 H 14.81739597261543 41.607212988625065 7.43849369555894 H 0.0 **** 0.06
27268 H 15.001108360620492 40.67220154714158 8.941910892951189 H 0.0 **** 0.06
27269 H 16.435651892423067 41.09552247543195 7.975624546902708 H 0.0 **** 0.06
27270 H 15.276511143723667 39.88983301056214 7.366507522842797 H 0.0 **** 0.06
27271 C 92.60835778814322 98.74559899997504 53.440481252849 C 0.0 **** -0.24
27272 H 92.2774741866906 97.7186112222341 53.596811487873595 H 0.0 **** 0.06
27273 H 93.68592138555573 98.75906937785649 53.27354632249674 H 0.0 **** 0.06
27274 H 92.36866396372267 99.34256343495923 54.31996192514208 H 0.0 **** 0.06
27275 H 92.10083743459569 99.16143649396071 52.5695551438786 H 0.0 **** 0.06
27276 C 84.32761516068993 16.622366221208352 64.87974385344631 C 0.0 **** -0.24
27277 H 84.16999515101281 16.065217162132683 65.80355652809502 H 0.0 **** 0.06
27278 H 85.27501769517508 16.323360681903893 64.43244749833752 H 0.0 **** 0.06
27279 H 84.34933462782757 17.69042907383468 65.09890370404116 H 0.0 **** 0.06
27280 H 83.51484135274453 16.410440519950157 64.18561118966531 H 0.0 **** 0.06
27281 C 37.46193367519059 24.089103109675413 28.07314790091675 C 0.0 **** -0.24
27282 H 38.13271349407677 24.92071011804549 28.290171432431066 H 0.0 **** 0.06
27283 H 36.47594203991512 24.47634881847688 27.814945921153992 H 0.0 **** 0.06
27284 H 37.38261225258596 23.44737250644534 28.95020882591251 H 0.0 **** 0.06
27285 H 37.857039830481455 23.51324223557699 27.235822762332646 H 0.0 **** 0.06
27286 C 91.36968265529512 49.254178968628096 57.773962254056705 C 0.0 **** -0.24
27287 H 91.92798801838421 49.72094003386399 56.96340744046329 H 0.0 **** 0.06
27288 H 92.00681748178877 48.5309368108882 58.28367786264969 H 0.0 **** 0.06
27289 H 90.49545437221008 48.74636219275983 57.36817669278479 H 0.0 **** 0.06
27290 H 91.04923676515631 50.0192790947947 58.4814643557661 H 0.0 **** 0.06
27291 C 13.117557062637104 4.837717578785149 35.73869295589061 C 0.0 **** -0.24
27292 H 13.094890255042685 5.8510575588233955 35.339024082727754 H 0.0 **** 0.06
27293 H 12.167106758018178 4.617242511094364 36.22556971767274 H 0.0 **** 0.06
27294 H 13.926911380757645 4.752327787950987 36.464282494565595 H 0.0 **** 0.06
27295 H 13.282615032971478 4.130058489833953 34.925358136202554 H 0.0 **** 0.06
27296 C 40.16376292213034 11.938280116644819 56.1641034885185 C 0.0 **** -0.24
27297 H 39.28624492095614 11.883674155717188 56.80910222225172 H 0.0 **** 0.06
27298 H 40.41494511561912 10.939162338575443 55.80806116510761 H 0.0 **** 0.06
27299 H 41.00372136998927 12.34540122071661 56.727611447075894 H 0.0 **** 0.06
27300 H 39.947937491872835 12.584891379363398 55.3136758238036 H 0.0 **** 0.06
27301 C 74.9869066335176 31.85977037233821 7.958914024835181 C 0.0 **** -0.24
27302 H 74.11254198436194 31.33838095361066 7.5694612091509015 H 0.0 **** 0.06
27303 H 75.30106492979786 31.392988373376646 8.893772429703517 H 0.0 **** 0.06
27304 H 74.73603841056769 32.90495987965762 8.140647373621661 H 0.0 **** 0.06
27305 H 75.79822402676956 31.80061549532472 7.2329479157841945 H 0.0 **** 0.06
27306 C 43.41190247783184 59.23733552030032 112.86681773415418 C 0.0 **** -0.24
27307 H 42.47297512528685 58.82420725221746 112.49969055664354 H 0.0 **** 0.06
27308 H 43.262573595921474 59.647975629448524 113.86529985156236 H 0.0 **** 0.06
27309 H 43.74887650234703 60.026963674981204 112.19580819333362 H 0.0 **** 0.06
27310 H 44.16436429515022 58.44838201554248 112.90703802204746 H 0.0 **** 0.06
27311 C 100.0582324646841 12.967094581149919 95.36792370997404 C 0.0 **** -0.24
27312 H 99.64966370829129 12.460961224884773 94.49334578006258 H 0.0 **** 0.06
27313 H 99.9073099779084 14.041963113581982 95.26848528298007 H 0.0 **** 0.06
27314 H 101.1241019764129 12.754736834078397 95.44456100657285 H 0.0 **** 0.06
27315 H 99.5504290968857 12.610287400634743 96.26396686681232 H 0.0 **** 0.06
27316 C 68.92011590051231 41.41775602299915 54.19786238968692 C 0.0 **** -0.24
27317 H 69.76919776077187 42.05689111200476 54.438106520977215 H 0.0 **** 0.06
27318 H 68.26822526836264 41.33859076657026 55.06732738533526 H 0.0 **** 0.06
27319 H 69.27818973101273 40.42732613269822 53.919764139126585 H 0.0 **** 0.06
27320 H 68.36438884894602 41.850709235524775 53.36499803572889 H 0.0 **** 0.06
27321 C 44.566893077966725 26.516505520362017 4.358430474636361 C 0.0 **** -0.24
27322 H 45.27240532629287 25.694140135004574 4.24190761373459 H 0.0 **** 0.06
27323 H 43.55388495344236 26.11983078277376 4.423910557980415 H 0.0 **** 0.06
27324 H 44.64234371328914 27.183978305889866 3.4995071384894736 H 0.0 **** 0.06
27325 H 44.80110765511583 27.067962818081753 5.268927777241657 H 0.0 **** 0.06
27326 C 94.17031106754601 33.292700526841486 101.99932226343506 C 0.0 **** -0.24
27327 H 93.928311857783 32.23553800085057 101.88915079477019 H 0.0 **** 0.06
27328 H 93.34486615392794 33.80487850152133 102.49518259346081 H 0.0 **** 0.06
27329 H 94.331756438161 33.73264699809141 101.01422502349283 H 0.0 **** 0.06
27330 H 95.07550908721993 33.3974616175214 102.59721992114609 H 0.0 **** 0.06
27331 C 25.017838340021854 105.10408330407981 38.165584113166915 C 0.0 **** -0.24
27332 H 25.706288371523954 104.25849854887565 38.14658377403387 H 0.0 **** 0.06
27333 H 25.306046978982693 105.82451097980226 37.399470699606326 H 0.0 **** 0.06
27334 H 25.054416321871827 105.58057455372969 39.145165706180194 H 0.0 **** 0.06
27335 H 24.005138892717127 104.75042830595524 37.97054573216138 H 0.0 **** 0.06
27336 C 68.84287630523187 78.84244122172464 106.49461199959643 C 0.0 **** -0.24
27337 H 69.40648981080659 77.97273479119008 106.15687022359924 H 0.0 **** 0.06
27338 H 67.80343564308029 78.55923726259024 106.65895483151854 H 0.0 **** 0.06
27339 H 68.8914971066782 79.62350713270024 105.73573121927322 H 0.0 **** 0.06
27340 H 69.27168330849062 79.21398713303867 107.42573025282022 H 0.0 **** 0.06
27341 C 9.666973460356644 0.33682041375139704 88.35213065060847 C 0.0 **** -0.24
27342 H 9.186262505691502 -0.1846709720826567 89.18000726945931 H 0.0 **** 0.06
27343 H 10.355454021210676 1.085261511286248 88.74524569907354 H 0.0 **** 0.06
27344 H 8.908573100695264 0.8254097810019942 87.74078928732288 H 0.0 **** 0.06
27345 H 10.217428237920558 -0.37967622523024147 87.74270875261624 H 0.0 **** 0.06
27346 C 110.70940968586962 32.612454453505535 94.71254064452114 C 0.0 **** -0.24
27347 H 109.92286056845923 33.238034019061985 95.13670896524391 H 0.0 **** 0.06
27348 H 110.30055795460714 32.020527053527616 93.89301624491713 H 0.0 **** 0.06
27349 H 111.09782410702088 31.946360745799694 95.48305241144197 H 0.0 **** 0.06
27350 H 111.51383576269767 33.24533501021935 94.33944711774325 H 0.0 **** 0.06
27351 C 86.88886744450318 89.75929716975705 45.978990729796095 C 0.0 **** -0.24
27352 H 87.9266281789738 89.45790873841298 45.84001023329992 H 0.0 **** 0.06
27353 H 86.5903947707541 89.56963687108166 47.01031659173802 H 0.0 **** 0.06
27354 H 86.25136176225547 89.18715272597368 45.30405645501 H 0.0 **** 0.06
27355 H 86.78740172408763 90.8223186043044 45.76064674506293 H 0.0 **** 0.06
27356 C 83.7529439413978 109.62815667033681 36.2904792584347 C 0.0 **** -0.24
27357 H 84.34404098522225 108.72175163384811 36.15737330971885 H 0.0 **** 0.06
27358 H 82.72177257422385 109.35831148703343 36.52012071411161 H 0.0 **** 0.06
27359 H 83.77970084141145 110.21747519178962 35.37440193525707 H 0.0 **** 0.06
27360 H 84.16759536252249 110.21412610676485 37.11153593179438 H 0.0 **** 0.06
27361 C 114.90473974467106 91.51616390158799 104.94489765227885 C 0.0 **** -0.24
27362 H 115.92970446045643 91.23281674549892 105.18566045378174 H 0.0 **** 0.06
27363 H 114.36714110572578 91.74771143275382 105.8640305972703 H 0.0 **** 0.06
27364 H 114.41137270437962 90.69020846123627 104.43241297135836 H 0.0 **** 0.06
27365 H 114.91341447437861 92.3925667512373 104.29763827506756 H 0.0 **** 0.06
27366 C 43.49108473567844 83.1476223534668 13.691074290348666 C 0.0 **** -0.24
27367 H 44.2481802756559 82.96813835419027 14.454239925585426 H 0.0 **** 0.06
27368 H 42.70212287385897 82.40041397406904 13.777623660461302 H 0.0 **** 0.06
27369 H 43.94875314852732 83.08062368869489 12.703371475962058 H 0.0 **** 0.06
27370 H 43.06633290686614 84.1420776357107 13.82850263135137 H 0.0 **** 0.06
27371 C 77.11244818774043 74.10527975984016 87.16275879243221 C 0.0 **** -0.24
27372 H 76.68403539481159 73.92164442493595 86.17722211964033 H 0.0 **** 0.06
27373 H 78.17054284673009 73.84014018740643 87.15360608269322 H 0.0 **** 0.06
27374 H 76.59257203854705 73.49711705378888 87.903718264187 H 0.0 **** 0.06
27375 H 77.0034261666595 75.1595037218672 87.41633909840579 H 0.0 **** 0.06
27376 C 77.01008945869103 80.05505580745535 15.168855924966152 C 0.0 **** -0.24
27377 H 76.10919864444043 80.13033326648076 14.55893865351942 H 0.0 **** 0.06
27378 H 77.8471265853554 79.74610363321935 14.54266076870212 H 0.0 **** 0.06
27379 H 76.8538550517296 79.31967441624363 15.956997970435793 H 0.0 **** 0.06
27380 H 77.22758564325986 81.02564640063491 15.615115152727554 H 0.0 **** 0.06
27381 C 48.401926117636265 82.50793228019268 111.96732529664078 C 0.0 **** -0.24
27382 H 49.46413758604416 82.30534454415562 111.82990994971823 H 0.0 **** 0.06
27383 H 48.089443728512265 82.15953173450433 112.95168639668788 H 0.0 **** 0.06
27384 H 47.8311296831734 81.98652822866413 111.1985572926483 H 0.0 **** 0.06
27385 H 48.22397015204717 83.58023053894811 111.88631245136978 H 0.0 **** 0.06
27386 C 5.718991965337814 83.48736109644395 89.2407046672759 C 0.0 **** -0.24
27387 H 6.676075663243788 83.56813452370855 88.72490485938721 H 0.0 **** 0.06
27388 H 5.535803333193147 84.39651417518189 89.81258272696437 H 0.0 **** 0.06
27389 H 5.74209932623744 82.63106588802057 89.91472138036494 H 0.0 **** 0.06
27390 H 4.923243577656056 83.35175100956195 88.50786880221006 H 0.0 **** 0.06
27391 C 17.941041029242626 104.92189517461935 90.80929694740877 C 0.0 **** -0.24
27392 H 18.45584119934142 104.23450470863054 90.13870463749072 H 0.0 **** 0.06
27393 H 17.387342619066715 104.35343809813688 91.55739965584709 H 0.0 **** 0.06
27394 H 17.248682695592834 105.53886955607783 90.23535131161793 H 0.0 **** 0.06
27395 H 18.672297602969536 105.56076833563228 91.30573218467927 H 0.0 **** 0.06
27396 C 57.36984439712921 71.62891827854196 18.018617897150563 C 0.0 **** -0.24
27397 H 57.97032536773796 71.37127124573817 18.89157587361302 H 0.0 **** 0.06
27398 H 56.68771026028876 70.80896454461089 17.791470535023052 H 0.0 **** 0.06
27399 H 58.025981743756894 71.80258719862903 17.165664287686894 H 0.0 **** 0.06
27400 H 56.79673170743525 72.53252348443692 18.225872405380812 H 0.0 **** 0.06
27401 C 34.364413939510484 5.724903767721701 18.434507633716322 C 0.0 **** -0.24
27402 H 34.38402398289543 6.506277435600149 19.19477972409578 H 0.0 **** 0.06
27403 H 35.0025350017512 6.0152742326502295 17.599553442891903 H 0.0 **** 0.06
27404 H 33.34197347420087 5.588679218485536 18.08132019614905 H 0.0 **** 0.06
27405 H 34.72821161097579 4.7916978359811395 18.864330737775646 H 0.0 **** 0.06
27406 C 100.26620922246806 50.723435418152434 32.328115477447625 C 0.0 **** -0.24
27407 H 100.35007747786915 50.575568865074956 33.40448926349881 H 0.0 **** 0.06
27408 H 100.98010889046708 51.483578628696876 32.00912708600874 H 0.0 **** 0.06
27409 H 99.25500567815845 51.05047430601769 32.08381651104558 H 0.0 **** 0.06
27410 H 100.47902450666544 49.78632616102104 31.814164281616314 H 0.0 **** 0.06
27411 C 86.27540613485985 59.76397873475205 32.935017499423 C 0.0 **** -0.24
27412 H 85.33542952778268 59.224272200084265 32.81417513260621 H 0.0 **** 0.06
27413 H 86.92522009477639 59.211794562588146 33.614517660031396 H 0.0 **** 0.06
27414 H 86.07428717567407 60.75321293044559 33.34613041868036 H 0.0 **** 0.06
27415 H 86.76244014718151 59.86500484997476 31.965795396625964 H 0.0 **** 0.06
27416 C 109.03230279619633 53.80125353849883 38.68932559826655 C 0.0 **** -0.24
27417 H 108.8682011999864 54.87179274797266 38.558993174121184 H 0.0 **** 0.06
27418 H 108.88282053973644 53.29331202131808 37.73607773474842 H 0.0 **** 0.06
27419 H 108.32570771371473 53.41261571967656 39.42304423151333 H 0.0 **** 0.06
27420 H 110.04993466494676 53.62981354356304 39.03810860648744 H 0.0 **** 0.06
27421 C 113.21701879688688 87.1166991523499 91.85013284155028 C 0.0 **** -0.24
27422 H 113.89040763019261 86.36176267972743 92.25581295983321 H 0.0 **** 0.06
27423 H 112.80403577940716 87.71190017911923 92.6643015625996 H 0.0 **** 0.06
27424 H 112.40644876579282 86.62776974754641 91.30971982522135 H 0.0 **** 0.06
27425 H 113.76811821539081 87.765411672026 91.16866639971968 H 0.0 **** 0.06
27426 C 95.60568577345899 8.812781655306338 99.02887540077487 C 0.0 **** -0.24
27427 H 96.03492783605705 8.322337866736191 98.15524670280718 H 0.0 **** 0.06
27428 H 96.15446345576751 9.731364910883471 99.23623695568278 H 0.0 **** 0.06
27429 H 95.67165125964263 8.146345775026774 99.8889450162757 H 0.0 **** 0.06
27430 H 94.55939825634354 9.05041715672968 98.83326649620517 H 0.0 **** 0.06
27431 C 92.60261069075412 29.116156514566995 28.571994070816913 C 0.0 **** -0.24
27432 H 93.30598706422714 28.284252789951807 28.565848975339236 H 0.0 **** 0.06
27433 H 91.69275850316782 28.82686205769275 28.04728214390508 H 0.0 **** 0.06
27434 H 93.05264413272388 29.97535978584952 28.073454529123126 H 0.0 **** 0.06
27435 H 92.36102903022609 29.379198238833794 29.601385767634213 H 0.0 **** 0.06
27436 C 5.952053050281759 107.5504859423902 0.8820049054516801 C 0.0 **** -0.24
27437 H 6.42897074845737 108.18200649835083 0.13225742894306336 H 0.0 **** 0.06
27438 H 5.890906102151417 106.52838923027056 0.5103555591408906 H 0.0 **** 0.06
27439 H 4.949098333467111 107.92437526469342 1.0861801613580297 H 0.0 **** 0.06
27440 H 6.540505112797087 107.56969678663177 1.7993740160930258 H 0.0 **** 0.06
27441 C 38.327821472393985 83.9357135876561 17.206101811824222 C 0.0 **** -0.24
27442 H 38.41776856932435 83.14786734187095 16.45789541837301 H 0.0 **** 0.06
27443 H 38.4991232358106 83.51567766972744 18.19769021038088 H 0.0 **** 0.06
27444 H 37.32695680144099 84.36606123723755 17.161764218094262 H 0.0 **** 0.06
27445 H 39.06669218089432 84.7120528244983 17.006929920444705 H 0.0 **** 0.06
27446 C 48.633472100836 19.504933798234816 59.058111170790646 C 0.0 **** -0.24
27447 H 48.503415870632864 18.424095300737577 59.0031886167778 H 0.0 **** 0.06
27448 H 47.92192024121829 19.920643654307753 59.77212607288585 H 0.0 **** 0.06
27449 H 48.46119340338839 19.941984946569818 58.074711816508675 H 0.0 **** 0.06
27450 H 49.64881428260938 19.73162244860336 59.383815778875594 H 0.0 **** 0.06
27451 C 90.38275139106133 108.32397504266706 25.31726892529676 C 0.0 **** -0.24
27452 H 91.31337374070006 107.76253520895281 25.236322618166184 H 0.0 **** 0.06
27453 H 90.1413089909305 108.76779582467024 24.351401620677407 H 0.0 **** 0.06
27454 H 90.49700112847029 109.1112713301111 26.062365909568214 H 0.0 **** 0.06
27455 H 89.57938915511227 107.65135703619526 25.619575332630973 H 0.0 **** 0.06
27456 C 91.37263121135427 26.78002496186872 109.40477059732679 C 0.0 **** -0.24
27457 H 90.72741818747943 27.609071069519985 109.11514905911913 H 0.0 **** 0.06
27458 H 91.24959847546398 25.959207411823456 108.69681468379459 H 0.0 **** 0.06
27459 H 91.10281054440395 26.440846100999295 110.40456129246631 H 0.0 **** 0.06
27460 H 92.41202019077673 27.10940162554232 109.40122511480547 H 0.0 **** 0.06
27461 C 96.79711472507796 33.54399942588202 112.93688963881434 C 0.0 **** -0.24
27462 H 95.77325922771243 33.20118163322138 112.79058586252137 H 0.0 **** 0.06
27463 H 96.82138508555045 34.28346541879387 113.73727576765572 H 0.0 **** 0.06
27464 H 97.16447494631402 33.99489830100924 112.01452816387581 H 0.0 **** 0.06
27465 H 97.42917121793931 32.69686985596249 113.20349618920164 H 0.0 **** 0.06
27466 C 81.23863210054446 37.177941033967386 51.17072669243572 C 0.0 **** -0.24
27467 H 82.00601369346668 37.94901439041834 51.1079071663458 H 0.0 **** 0.06
27468 H 80.45964094654323 37.4959723772331 51.864730942888656 H 0.0 **** 0.06
27469 H 81.68508679798424 36.24896068140727 51.526620952448894 H 0.0 **** 0.06
27470 H 80.80304174109915 37.01717858605831 50.18384142959687 H 0.0 **** 0.06
27471 C 62.07933764017389 91.06949364022927 34.210967859998334 C 0.0 **** -0.24
27472 H 62.41266497287026 92.02066354009332 33.797016627363035 H 0.0 **** 0.06
27473 H 62.777768497489944 90.28307810932904 33.92283076793976 H 0.0 **** 0.06
27474 H 61.08649178250272 90.83369970937468 33.82643521578177 H 0.0 **** 0.06
27475 H 62.0395671328325 91.13949763204405 35.298026146169576 H 0.0 **** 0.06
27476 C 82.2259820665146 66.78774127503868 93.99296274241942 C 0.0 **** -0.24
27477 H 83.12041316033708 67.3420697718035 94.27605788952704 H 0.0 **** 0.06
27478 H 82.00076579052109 66.97364716705886 92.94265344854381 H 0.0 **** 0.06
27479 H 81.38768958479639 67.1123321892793 94.6080629963387 H 0.0 **** 0.06
27480 H 82.39702104987711 65.72095072343461 94.1445367386597 H 0.0 **** 0.06
27481 C 85.50125167414592 23.001930965827263 70.93450718039196 C 0.0 **** -0.24
27482 H 84.71314103801384 23.40995492365071 70.30067667280827 H 0.0 **** 0.06
27483 H 86.3367286578139 23.702739026485794 70.97137691163078 H 0.0 **** 0.06
27484 H 85.8416137076529 22.051760614794876 70.52407216871086 H 0.0 **** 0.06
27485 H 85.11335681304243 22.845620519570108 71.9412363413918 H 0.0 **** 0.06
27486 C 25.63514477839729 68.40627861381515 8.970373083968894 C 0.0 **** -0.24
27487 H 25.851851256530068 68.76243476970882 9.97726783205836 H 0.0 **** 0.06
27488 H 24.608702665572366 68.66452500156902 8.706834753152748 H 0.0 **** 0.06
27489 H 25.757744517467017 67.32339184923583 8.933527754385338 H 0.0 **** 0.06
27490 H 26.3202955771942 68.87375597417136 8.264076268596625 H 0.0 **** 0.06
27491 C 82.76685562189306 72.61332358767123 88.30062509403413 C 0.0 **** -0.24
27492 H 83.69100669973815 72.42515219849975 88.84672696640092 H 0.0 **** 0.06
27493 H 82.02263339843071 73.03123762515153 88.98015451282518 H 0.0 **** 0.06
27494 H 82.39354476014395 71.67746493768891 87.88414750210555 H 0.0 **** 0.06
27495 H 82.95867639593487 73.31945253892536 87.49307222991959 H 0.0 **** 0.06
27496 C 105.88202631253054 17.38764663351222 59.622736581896106 C 0.0 **** -0.24
27497 H 105.84167412484308 17.915730642688743 60.576233847635365 H 0.0 **** 0.06
27498 H 104.88892826715335 17.010381593387507 59.374250252991885 H 0.0 **** 0.06
27499 H 106.57925941151376 16.554026268761675 59.6991956480644 H 0.0 **** 0.06
27500 H 106.21676412404827 18.07242498384099 58.843481052575555 H 0.0 **** 0.06
27501 C 112.05632718420047 22.69007079487153 68.57208100958348 C 0.0 **** -0.24
27502 H 112.1760158248284 22.3944688570229 67.52929428766657 H 0.0 **** 0.06
27503 H 111.06166575542048 22.404633388361646 68.91763595177292 H 0.0 **** 0.06
27504 H 112.17670838836814 23.769661128202785 68.65922464976802 H 0.0 **** 0.06
27505 H 112.8095561222401 22.189927524910814 69.18002244007891 H 0.0 **** 0.06
27506 C 19.7227518147441 104.24515658818768 31.292572722890014 C 0.0 **** -0.24
27507 H 19.3881386734231 104.99843352834495 30.57987235264514 H 0.0 **** 0.06
27508 H 20.798624618810777 104.10180699956709 31.19275506358798 H 0.0 **** 0.06
27509 H 19.20991034868291 103.30410695797153 31.093378851200015 H 0.0 **** 0.06
27510 H 19.49229532842989 104.5760962006195 32.30563086211737 H 0.0 **** 0.06
27511 C 4.7114567032820105 15.112410338620407 8.173387264467323 C 0.0 **** -0.24
27512 H 5.568780189969289 15.51036993976831 7.631095347900555 H 0.0 **** 0.06
27513 H 4.125683427777801 15.937040194939868 8.581300635634094 H 0.0 **** 0.06
27514 H 5.060112510807926 14.476745543021039 8.98780632588813 H 0.0 **** 0.06
27515 H 4.0926548138317 14.527193908155382 7.494400652995779 H 0.0 **** 0.06
27516 C 67.16560494220127 54.951214834703656 53.23959250514446 C 0.0 **** -0.24
27517 H 68.14352099477523 54.811841776104686 52.77664280596636 H 0.0 **** 0.06
27518 H 67.05664863733048 54.25841780793374 54.07423421851854 H 0.0 **** 0.06
27519 H 66.38560195875104 54.758522378084365 52.502550466477686 H 0.0 **** 0.06
27520 H 67.07909520647343 55.97510429246447 53.602284340159486 H 0.0 **** 0.06
27521 C 0.21429810906195712 59.96711893544691 92.62865585640733 C 0.0 **** -0.24
27522 H 0.8684716811278861 60.35189445525797 91.84629743411418 H 0.0 **** 0.06
27523 H -0.19675173672234791 60.79879275346804 93.20058909514151 H 0.0 **** 0.06
27524 H 0.7856502253949884 59.3163785275213 93.29198665705388 H 0.0 **** 0.06
27525 H -0.5982184016439476 59.40041784815218 92.17532960594346 H 0.0 **** 0.06
27526 C 18.49046962172835 50.991637859566545 42.87781881037748 C 0.0 **** -0.24
27527 H 18.58841287285452 50.689492232909984 43.9208840766382 H 0.0 **** 0.06
27528 H 17.440448393798675 50.95933684741282 42.58776018061809 H 0.0 **** 0.06
27529 H 19.062894624923644 50.31180417664999 42.24718047310853 H 0.0 **** 0.06
27530 H 18.8697616115833 52.005962008799614 42.75787293104659 H 0.0 **** 0.06
27531 C 94.96094042669108 31.81218669804131 70.35473187117114 C 0.0 **** -0.24
27532 H 95.86220016476486 31.28879977372035 70.67203284258514 H 0.0 **** 0.06
27533 H 94.20468186117714 31.085852051941032 70.05749473698361 H 0.0 **** 0.06
27534 H 95.19512791217326 32.460346788620676 69.51093295133768 H 0.0 **** 0.06
27535 H 94.5809948044915 32.4136717019608 71.18056967747563 H 0.0 **** 0.06
27536 C 115.51155225420884 99.4427245618212 34.19345076491081 C 0.0 **** -0.24
27537 H 115.72216471244788 99.1615172195778 35.22548749559704 H 0.0 **** 0.06
27538 H 115.19017798266378 98.56260151070651 33.63625782451669 H 0.0 **** 0.06
27539 H 116.41267006401903 99.85242157669461 33.73817067689933 H 0.0 **** 0.06
27540 H 114.72127701044184 100.19339713829234 34.17613888118112 H 0.0 **** 0.06
27541 C 55.19229718627257 102.21889836358108 78.34263879189672 C 0.0 **** -0.24
27542 H 54.5970082863995 102.76624547345574 77.61120097362704 H 0.0 **** 0.06
27543 H 55.5729288202074 101.30394092635436 77.8897156656586 H 0.0 **** 0.06
27544 H 54.569822675402285 101.96828668861778 79.20191829722799 H 0.0 **** 0.06
27545 H 56.02749561684933 102.83930805201337 78.66650500175285 H 0.0 **** 0.06
27546 C 28.12503401006387 39.89566455780425 23.81254269275189 C 0.0 **** -0.24
27547 H 27.105799259948952 39.72760473190587 24.159178429920587 H 0.0 **** 0.06
27548 H 28.348537294630574 40.96260052280945 23.84466691041581 H 0.0 **** 0.06
27549 H 28.224275801926126 39.53384373724501 22.78872787765647 H 0.0 **** 0.06
27550 H 28.821158095994974 39.35890566692726 24.455930624588348 H 0.0 **** 0.06
27551 C 19.965027892770294 86.32799717776595 41.34197810945231 C 0.0 **** -0.24
27552 H 20.060794294580518 86.6813674505033 42.36861008188762 H 0.0 **** 0.06
27553 H 20.16405587516897 87.15100219193053 40.65525720598075 H 0.0 **** 0.06
27554 H 18.95397615036225 85.95489043502133 41.17960606644574 H 0.0 **** 0.06
27555 H 20.682432574452292 85.52600535172925 41.16618664979303 H 0.0 **** 0.06
27556 C 37.224261861224846 24.808099186227366 11.845848989352788 C 0.0 **** -0.24
27557 H 37.756712653000676 25.33638220327134 11.054702860921068 H 0.0 **** 0.06
27558 H 37.32615801374331 25.35834166111013 12.781216487110328 H 0.0 **** 0.06
27559 H 37.64726209902304 23.809891289674653 11.962702793878066 H 0.0 **** 0.06
27560 H 36.170238297859925 24.72736862024729 11.58236882055715 H 0.0 **** 0.06
27561 C 18.532259996760807 75.32852499270109 79.288497507948 C 0.0 **** -0.24
27562 H 19.573135970929712 75.01982873330485 79.39531000026128 H 0.0 **** 0.06
27563 H 18.312612531310403 76.11680971721682 80.0077895810274 H 0.0 **** 0.06
27564 H 17.87969264794882 74.4747191330058 79.47274574698051 H 0.0 **** 0.06
27565 H 18.367351170508947 75.70111199625626 78.27763205928798 H 0.0 **** 0.06
27566 C 95.69914355511065 21.494927053406798 39.971131154430054 C 0.0 **** -0.24
27567 H 96.367262727559 22.30879965631749 39.68676657879524 H 0.0 **** 0.06
27568 H 96.04035024050742 21.057866686430714 40.91044009939037 H 0.0 **** 0.06
27569 H 95.70369147926874 20.7325676872523 39.1918221633328 H 0.0 **** 0.06
27570 H 94.68795373981996 21.882311616128234 40.09614446953458 H 0.0 **** 0.06
27571 C 13.892881309584084 81.44698587217863 108.4017477655513 C 0.0 **** -0.24
27572 H 14.207259087700834 81.35434809305582 109.44076400894662 H 0.0 **** 0.06
27573 H 14.57635905370816 82.11292969395618 107.87357255668229 H 0.0 **** 0.06
27574 H 12.883418929187513 81.85675552646967 108.36299835138053 H 0.0 **** 0.06
27575 H 13.90436849227072 80.46477026110642 107.93015211709286 H 0.0 **** 0.06
27576 C 90.82366212436963 70.2935189605613 78.39661642576897 C 0.0 **** -0.24
27577 H 90.59242802801899 69.86149260803506 79.37031247400091 H 0.0 **** 0.06
27578 H 90.39987301131364 71.29639837318933 78.33513718442819 H 0.0 **** 0.06
27579 H 90.3963566949381 69.66939654495229 77.61181311176674 H 0.0 **** 0.06
27580 H 91.9046009559485 70.3472586245216 78.27116446137617 H 0.0 **** 0.06
27581 C 42.61842525949564 12.19862273524052 47.74092456137603 C 0.0 **** -0.24
27582 H 41.70549050167312 12.711169212671109 47.439559108382326 H 0.0 **** 0.06
27583 H 43.15919368016751 11.868522840608478 46.8542806040613 H 0.0 **** 0.06
27584 H 42.36385958554672 11.334784660017988 48.354427635767166 H 0.0 **** 0.06
27585 H 43.24456895590377 12.881285913478223 48.31562277515869 H 0.0 **** 0.06
27586 C 38.518807384630065 82.45191633452421 100.84304621900407 C 0.0 **** -0.24
27587 H 37.596646182698464 82.5080153901769 100.26559101390569 H 0.0 **** 0.06
27588 H 38.342071379444036 82.83603366528828 101.84836522512063 H 0.0 **** 0.06
27589 H 39.28992445247067 83.04964500177783 100.35618903111634 H 0.0 **** 0.06
27590 H 38.84717645443234 81.41384555809589 100.90331924282435 H 0.0 **** 0.06
27591 C 115.67155808650955 113.73418441109624 60.39253686255116 C 0.0 **** -0.24
27592 H 115.35171599789443 113.24641916519735 59.47250643622714 H 0.0 **** 0.06
27593 H 114.81177730096279 114.19920625366316 60.875159560814346 H 0.0 **** 0.06
27594 H 116.41492039072777 114.49626556649073 60.15935508613395 H 0.0 **** 0.06
27595 H 116.10876428154958 112.993804413719 61.063266488336815 H 0.0 **** 0.06
27596 C 38.561008014365854 13.489808067496483 96.7224174710517 C 0.0 **** -0.24
27597 H 39.404013364109346 13.327914714344843 96.04935091318688 H 0.0 **** 0.06
27598 H 38.80795732512357 14.282817159290175 97.42875423325026 H 0.0 **** 0.06
27599 H 38.35147586892148 12.569812271022954 97.26835519075092 H 0.0 **** 0.06
27600 H 37.68440313069456 13.777142689157188 96.143013831672 H 0.0 **** 0.06
27601 C 32.773497503158666 4.895128449917033 23.411485017769536 C 0.0 **** -0.24
27602 H 33.81432255218627 4.8321532077684655 23.093398044857082 H 0.0 **** 0.06
27603 H 32.56901335358154 5.899436181048237 23.78406285708013 H 0.0 **** 0.06
27604 H 32.59245382865123 4.168684309702783 24.204897378747035 H 0.0 **** 0.06
27605 H 32.121115962679966 4.680122194068973 22.56592394639287 H 0.0 **** 0.06
27606 C 108.062813967779 18.67321232825043 84.1439534786065 C 0.0 **** -0.24
27607 H 108.30665730157921 17.723167158470687 84.62038251115578 H 0.0 **** 0.06
27608 H 108.89359750281481 18.98449469150671 83.5096183515486 H 0.0 **** 0.06
27609 H 107.88538201235082 19.428462636651602 84.90946626496773 H 0.0 **** 0.06
27610 H 107.16612297011443 18.553603973440886 83.53626356174246 H 0.0 **** 0.06
27611 C 52.0553737752372 51.32955905820012 114.1690369784053 C 0.0 **** -0.24
27612 H 52.77294741689511 50.53965402044781 113.94446375063542 H 0.0 **** 0.06
27613 H 52.355856251153455 52.246683596859896 113.66207066189357 H 0.0 **** 0.06
27614 H 52.02837738079921 51.50022463487977 115.24497767665785 H 0.0 **** 0.06
27615 H 51.06580843695474 51.03023812391427 113.82379593176339 H 0.0 **** 0.06
27616 C 87.20932281781356 38.001335815146916 100.76710930679207 C 0.0 **** -0.24
27617 H 88.1481066386713 38.1481277679147 101.30230188403874 H 0.0 **** 0.06
27618 H 86.97100946541062 38.90005760649515 100.19788538182723 H 0.0 **** 0.06
27619 H 86.41249458008713 37.801432584238455 101.48338189027555 H 0.0 **** 0.06
27620 H 87.30789609569132 37.155176334442075 100.08727447806939 H 0.0 **** 0.06
27621 C 0.22698662182892804 14.03414757567242 110.53743815774794 C 0.0 **** -0.24
27622 H -0.7761809634041583 14.460817030055892 110.52391168971661 H 0.0 **** 0.06
27623 H 0.2313050946982571 13.135506173525613 111.15504239922842 H 0.0 **** 0.06
27624 H 0.9257158310685725 14.761722710882083 110.94867507106159 H 0.0 **** 0.06
27625 H 0.526097210390418 13.777429098395118 109.52046887044207 H 0.0 **** 0.06
27626 C 9.527817291791479 38.02535808791151 91.98118087689713 C 0.0 **** -0.24
27627 H 10.500327431398645 37.70957227806781 91.60608461571985 H 0.0 **** 0.06
27628 H 9.011444171735675 37.17055737180493 92.4184948704794 H 0.0 **** 0.06
27629 H 8.934239458731554 38.426607484339286 91.16020938019483 H 0.0 **** 0.06
27630 H 9.664076042633667 38.79551974518586 92.74132140506717 H 0.0 **** 0.06
27631 C 114.64836877739504 29.47399365614777 40.3987686099336 C 0.0 **** -0.24
27632 H 115.07927403640277 28.782303603182598 39.6745307176806 H 0.0 **** 0.06
27633 H 113.6904409589409 29.83894758268724 40.02626092260249 H 0.0 **** 0.06
27634 H 115.32651745735922 30.31570897472308 40.54513033200831 H 0.0 **** 0.06
27635 H 114.49764995532742 28.95895724595566 41.34779934137046 H 0.0 **** 0.06
27636 C 69.52514140893823 105.46410213167115 103.03367918935024 C 0.0 **** -0.24
27637 H 68.54581775355982 105.83830767353356 102.73704929000138 H 0.0 **** 0.06
27638 H 69.51886633337199 105.2312857336693 104.09891632917211 H 0.0 **** 0.06
27639 H 70.28064628515943 106.22324195603068 102.83167161052981 H 0.0 **** 0.06
27640 H 69.75617326909105 104.56261952380845 102.46597912259202 H 0.0 **** 0.06
27641 C 0.282471979722132 48.203506002785105 93.50335723873673 C 0.0 **** -0.24
27642 H -0.12133960530071874 48.95425013825263 92.82355546375737 H 0.0 **** 0.06
27643 H 1.2722462761309856 47.89986418576794 93.16113142913218 H 0.0 **** 0.06
27644 H -0.3786520247601288 47.33658654085008 93.51996173708426 H 0.0 **** 0.06
27645 H 0.35627200834672124 48.623577352854824 94.50675975912415 H 0.0 **** 0.06
27646 C 79.63493102284392 103.68478285200362 6.21378899840748 C 0.0 **** -0.24
27647 H 79.73073781369405 104.27225576458633 7.127630711716904 H 0.0 **** 0.06
27648 H 79.97129706501389 104.27831973015884 5.363599117356969 H 0.0 **** 0.06
27649 H 78.59085668046566 103.40464235179877 6.070498764864524 H 0.0 **** 0.06
27650 H 80.24508319941978 102.78525030661825 6.294501315668398 H 0.0 **** 0.06
27651 C 4.12951722880779 3.6471571152251556 113.95830145552588 C 0.0 **** -0.24
27652 H 3.0802102456441 3.869676350014302 113.76747183226482 H 0.0 **** 0.06
27653 H 4.2129643810456745 3.0264558526643697 114.85002531425324 H 0.0 **** 0.06
27654 H 4.676418974090247 4.578111251428652 114.11153953728748 H 0.0 **** 0.06
27655 H 4.5501273625963545 3.1168879395868174 113.10408797915265 H 0.0 **** 0.06
27656 C 16.48513655106251 103.59722988128402 96.827241892718 C 0.0 **** -0.24
27657 H 16.841547212057833 102.6389397001642 96.4495947997203 H 0.0 **** 0.06
27658 H 17.073664985728158 104.40237157092855 96.38691913642356 H 0.0 **** 0.06
27659 H 16.589478651214108 103.62167041612685 97.91191988473048 H 0.0 **** 0.06
27660 H 15.436190740938628 103.7251823792505 96.5599708497459 H 0.0 **** 0.06
27661 C 21.35170181622709 65.76447434277833 50.90837408724974 C 0.0 **** -0.24
27662 H 21.39839037017765 66.84261569944323 51.05876792392442 H 0.0 **** 0.06
27663 H 21.13713251577866 65.27471297892077 51.85873867250106 H 0.0 **** 0.06
27664 H 22.307922218278634 65.40869172989841 50.52352698109121 H 0.0 **** 0.06
27665 H 20.562503995521467 65.5314719508682 50.193511405815826 H 0.0 **** 0.06
27666 C 98.37987130317302 44.839507669621554 10.293739660707672 C 0.0 **** -0.24
27667 H 98.96157569535237 44.46649133185211 11.136966678362057 H 0.0 **** 0.06
27668 H 98.97407671587851 45.56259179099439 9.734726901476051 H 0.0 **** 0.06
27669 H 97.47348968516934 45.321031783489474 10.66272873829439 H 0.0 **** 0.06
27670 H 98.11123180198894 44.00840471447569 9.642260101172496 H 0.0 **** 0.06
27671 C 110.86196223975779 40.53447854108788 3.6105771036096 C 0.0 **** -0.24
27672 H 111.00875015259584 39.478156701352276 3.832755781505554 H 0.0 **** 0.06
27673 H 111.02554955642657 40.70745376356268 2.546653818216072 H 0.0 **** 0.06
27674 H 111.56865674340469 41.12981033499983 4.188876254998689 H 0.0 **** 0.06
27675 H 109.8430907666426 40.82300264231665 3.872799997080918 H 0.0 **** 0.06
27676 C 1.3800475526666176 102.09482834331394 101.20538183543823 C 0.0 **** -0.24
27677 H 0.6202665892748271 102.56753686422968 101.82818400005456 H 0.0 **** 0.06
27678 H 1.6812100656912428 101.14889395643559 101.6555887279558 H 0.0 **** 0.06
27679 H 2.2451674073944243 102.75213072729304 101.1263875449186 H 0.0 **** 0.06
27680 H 0.9713208534590869 101.91060579775566 100.21153147396666 H 0.0 **** 0.06
27681 C 43.19786972253789 28.259788175186827 105.22403033665108 C 0.0 **** -0.24
27682 H 43.06711702748069 29.310919122539644 104.9680569117375 H 0.0 **** 0.06
27683 H 42.98840881004551 27.643419249910778 104.35011992669834 H 0.0 **** 0.06
27684 H 42.51232419644526 27.99448982043168 106.02923721403786 H 0.0 **** 0.06
27685 H 44.22446011906206 28.091001382904324 105.55090983595815 H 0.0 **** 0.06
27686 C 32.28912160910645 95.24453858982457 10.511349459823776 C 0.0 **** -0.24
27687 H 31.80173970003934 95.8543960579687 11.271580785711734 H 0.0 **** 0.06
27688 H 32.22520588909076 95.74862928127209 9.54563445151129 H 0.0 **** 0.06
27689 H 31.79187251294971 94.27597705451768 10.448828086276961 H 0.0 **** 0.06
27690 H 33.33596426336388 95.10025010797204 10.777143012293834 H 0.0 **** 0.06
27691 C 111.58048905070105 109.46538974695771 78.87091683585984 C 0.0 **** -0.24
27692 H 110.78599761550409 108.81883149958813 79.24144303866049 H 0.0 **** 0.06
27693 H 111.14267203148756 110.30501275464479 78.3298008533259 H 0.0 **** 0.06
27694 H 112.22638780385763 108.89888090771585 78.20041666662382 H 0.0 **** 0.06
27695 H 112.16596038506417 109.83990302406482 79.71028151004717 H 0.0 **** 0.06
27696 C 89.11566841982022 56.277019334912545 68.92991167963672 C 0.0 **** -0.24
27697 H 89.03412538312799 55.361107436741726 69.51569673169928 H 0.0 **** 0.06
27698 H 90.10952775753339 56.70440425831928 69.06286546368554 H 0.0 **** 0.06
27699 H 88.3644369170174 56.991270460949174 69.26818164795185 H 0.0 **** 0.06
27700 H 88.95469801411056 56.05026864566353 67.87605466401783 H 0.0 **** 0.06
27701 C 93.99944321357273 3.4850605484626893 116.73876206438163 C 0.0 **** -0.24
27702 H 94.62059844800672 3.7315901037407464 115.87766955035269 H 0.0 **** 0.06
27703 H 94.5679276989417 3.646464775494241 117.65449292684445 H 0.0 **** 0.06
27704 H 93.69420762058516 2.440158609317436 116.6794479926962 H 0.0 **** 0.06
27705 H 93.1151413799895 4.123022079200217 116.74338484959657 H 0.0 **** 0.06
27706 C 42.953868478976695 12.775252778719505 92.15393633407123 C 0.0 **** -0.24
27707 H 43.92262281950694 12.37368375149282 92.45025419904658 H 0.0 **** 0.06
27708 H 43.08584544045652 13.467532306682855 91.32152526514531 H 0.0 **** 0.06
27709 H 42.5063927691347 13.302732226986691 92.99667823983458 H 0.0 **** 0.06
27710 H 42.30043093690173 11.95906288201536 91.8482709812715 H 0.0 **** 0.06
27711 C 106.16309255160775 49.563874260267994 83.7443922977026 C 0.0 **** -0.24
27712 H 106.78151195740182 50.460944804446626 83.75625809293078 H 0.0 **** 0.06
27713 H 105.27878477520784 49.7409162859812 83.13263024129512 H 0.0 **** 0.06
27714 H 105.85861078800784 49.31880133643949 84.762203733176 H 0.0 **** 0.06
27715 H 106.73426134989802 48.734973039484885 83.32706281289288 H 0.0 **** 0.06
27716 C 97.602873045287 69.07155397691844 81.10514342037305 C 0.0 **** -0.24
27717 H 97.70499984079865 70.07147967107107 81.52683606827077 H 0.0 **** 0.06
27718 H 97.6695298397623 69.12739992711559 80.01865731289843 H 0.0 **** 0.06
27719 H 96.63762187878183 68.65396750393441 81.39021471841386 H 0.0 **** 0.06
27720 H 98.40164357913159 68.43394173559497 81.48547261322494 H 0.0 **** 0.06
27721 C 111.54561247212757 35.01703210089363 24.2504510405972 C 0.0 **** -0.24
27722 H 111.04196429919915 35.61678509493254 23.492556714214743 H 0.0 **** 0.06
27723 H 112.45751466826147 34.592063854849926 23.83071856205342 H 0.0 **** 0.06
27724 H 110.88550268766846 34.21375853209375 24.576011398161 H 0.0 **** 0.06
27725 H 111.79805725164084 35.64857799305736 25.103661170933037 H 0.0 **** 0.06
27726 C 42.49342952705777 74.887597828313 52.05853513082633 C 0.0 **** -0.24
27727 H 41.85595305468934 74.10695404943397 52.47410946236974 H 0.0 **** 0.06
27728 H 42.76244624839691 75.59296331036808 52.846124889434854 H 0.0 **** 0.06
27729 H 41.95769504769697 75.41146582770676 51.267406312302214 H 0.0 **** 0.06
27730 H 43.39771333545028 74.4373870983153 51.64921368055559 H 0.0 **** 0.06
27731 C 37.40245021762527 85.46780885274126 115.87071120226332 C 0.0 **** -0.24
27732 H 37.38534513293578 86.439214540123 116.36456174128912 H 0.0 **** 0.06
27733 H 37.85455955492597 84.73060065629701 116.53543993093942 H 0.0 **** 0.06
27734 H 37.98652688361966 85.53695725779207 114.95368184610899 H 0.0 **** 0.06
27735 H 36.38365353868343 85.16429298002325 115.63010488690816 H 0.0 **** 0.06
27736 C 35.86706461545273 21.663734972542287 13.33422257081483 C 0.0 **** -0.24
27737 H 34.95233354180618 22.02466262264703 13.805006269252203 H 0.0 **** 0.06
27738 H 36.714766088333505 21.851876877742427 13.994050484077889 H 0.0 **** 0.06
27739 H 36.0192451152698 22.183770297253545 12.388559148345195 H 0.0 **** 0.06
27740 H 35.78128385897722 20.592265899630036 13.149393628702057 H 0.0 **** 0.06
27741 C 24.435541959822814 55.07464479572267 1.7186578378620823 C 0.0 **** -0.24
27742 H 23.99357685816605 54.225919872872765 2.2408291054852896 H 0.0 **** 0.06
27743 H 25.34441791452403 55.38520310031771 2.234212893209275 H 0.0 **** 0.06
27744 H 23.725114182501557 55.9018899620304 1.7045213795709344 H 0.0 **** 0.06
27745 H 24.677130867662214 54.78636831087506 0.6963485181958333 H 0.0 **** 0.06
27746 C 61.49264877488611 18.828001938637374 63.88402698443815 C 0.0 **** -0.24
27747 H 60.494908362679716 18.39250332013121 63.93947060596258 H 0.0 **** 0.06
27748 H 62.03439646786793 18.38637184978897 63.047345866102205 H 0.0 **** 0.06
27749 H 62.028361989881596 18.62559132055201 64.81129784028354 H 0.0 **** 0.06
27750 H 61.41164177490041 19.90405100367402 63.737588900899425 H 0.0 **** 0.06
27751 C 102.6442157167327 63.019305063974194 26.082967801596737 C 0.0 **** -0.24
27752 H 102.28019340959406 63.728142477663276 25.339202214269747 H 0.0 **** 0.06
27753 H 101.99706912620806 63.05035595224408 26.96051278580609 H 0.0 **** 0.06
27754 H 103.66075528276008 63.28631018653501 26.37124287832934 H 0.0 **** 0.06
27755 H 102.63772438499174 62.01424118667911 25.66154353493063 H 0.0 **** 0.06
27756 C 32.02800779191162 94.24940987961259 70.32396154320392 C 0.0 **** -0.24
27757 H 32.89387713768275 93.90595921524442 69.75727121818147 H 0.0 **** 0.06
27758 H 31.11536558798474 93.93349696770548 69.81929713553112 H 0.0 **** 0.06
27759 H 32.04905337984377 95.33640255945681 70.39343735334506 H 0.0 **** 0.06
27760 H 32.05705832949167 93.82010625808016 71.32623122958361 H 0.0 **** 0.06
27761 C 74.18358723957809 65.90369220012943 38.80970015967432 C 0.0 **** -0.24
27762 H 74.74695541064736 66.80864518475374 39.034891861904384 H 0.0 **** 0.06
27763 H 74.74961798819348 65.03181565843713 39.13893336330716 H 0.0 **** 0.06
27764 H 74.01150453353702 65.8403689287916 37.73506687731253 H 0.0 **** 0.06
27765 H 73.22640388777398 65.93223908948093 39.32960402165196 H 0.0 **** 0.06
27766 C 81.29052015791342 25.23005696792631 61.27076221118617 C 0.0 **** -0.24
27767 H 81.77368582140451 24.285274649293115 61.52191821378162 H 0.0 **** 0.06
27768 H 80.32859833526584 25.03086168766953 60.79828086868466 H 0.0 **** 0.06
27769 H 81.9254047565089 25.79061196812342 60.58332515508627 H 0.0 **** 0.06
27770 H 81.13615579720982 25.81191675798759 62.17885677211086 H 0.0 **** 0.06
27771 C 103.71295207033708 95.63498479771422 54.51707305664838 C 0.0 **** -0.24
27772 H 103.5238037539981 95.58348631197694 55.58849346207035 H 0.0 **** 0.06
27773 H 104.20731908794485 96.57763168968 54.27996312828622 H 0.0 **** 0.06
27774 H 102.7673900513523 95.57397411897284 53.97733961337291 H 0.0 **** 0.06
27775 H 104.35461313145765 94.80438999430314 54.22003531192643 H 0.0 **** 0.06
27776 C 77.6462009568342 88.77712101586778 27.504979272077918 C 0.0 **** -0.24
27777 H 77.47608498378713 88.36307541088235 28.499023929495536 H 0.0 **** 0.06
27778 H 78.5941491285331 89.3158166615633 27.492679696720472 H 0.0 **** 0.06
27779 H 76.83530189760813 89.46145276013453 27.252799130652164 H 0.0 **** 0.06
27780 H 77.6780681788405 87.96744803497799 26.775702830345722 H 0.0 **** 0.06
27781 C 20.621079626291817 40.23973263090423 111.03729531388223 C 0.0 **** -0.24
27782 H 19.778239618822425 40.91503726463884 111.18268894152084 H 0.0 **** 0.06
27783 H 20.655971034347033 39.52193409409452 111.85660648397737 H 0.0 **** 0.06
27784 H 21.546713055951187 40.81366348812904 111.01677693315582 H 0.0 **** 0.06
27785 H 20.501895176168375 39.70913075984569 110.09287662418683 H 0.0 **** 0.06
27786 C 98.41286126852665 50.66071894464691 46.51846203442068 C 0.0 **** -0.24
27787 H 98.50832878936103 50.23611326132904 45.5189286668803 H 0.0 **** 0.06
27788 H 99.20251285665043 51.396318788529086 46.67679806516372 H 0.0 **** 0.06
27789 H 98.50114982473804 49.86718563939643 47.26046472106839 H 0.0 **** 0.06
27790 H 97.44076504181677 51.143577939143675 46.617234853602724 H 0.0 **** 0.06
27791 C 35.33178081637186 20.75548068738962 20.00453820581279 C 0.0 **** -0.24
27792 H 35.10456824113086 20.045500342647017 20.800001178993245 H 0.0 **** 0.06
27793 H 34.54526451735006 20.721147913960152 19.251023569947584 H 0.0 **** 0.06
27794 H 36.286032526233925 20.496301724289737 19.54659730520391 H 0.0 **** 0.06
27795 H 35.39133483674922 21.760894997315972 20.42283286654314 H 0.0 **** 0.06
27796 C 4.967856189283404 54.386662348126265 97.03621067513771 C 0.0 **** -0.24
27797 H 4.458401004475499 54.43052937475795 97.9994459179079 H 0.0 **** 0.06
27798 H 4.958842545553532 53.36067160782386 96.6677100032386 H 0.0 **** 0.06
27799 H 5.99752237040124 54.72220948140301 97.15370771955995 H 0.0 **** 0.06
27800 H 4.453139665174007 55.03246103983241 96.32408430044416 H 0.0 **** 0.06
27801 C 3.7039039942499983 68.73734748338674 43.89906038414023 C 0.0 **** -0.24
27802 H 3.500678467655405 68.98022964881343 44.94207409845592 H 0.0 **** 0.06
27803 H 4.418743759843238 69.45186832547037 43.49226931012359 H 0.0 **** 0.06
27804 H 2.7767028697581395 68.78500548139186 43.328036083668366 H 0.0 **** 0.06
27805 H 4.1175009869828045 67.73118662402513 43.8347736344725 H 0.0 **** 0.06
27806 C 84.31078966655195 53.395130153946134 2.3908983911104897 C 0.0 **** -0.24
27807 H 83.46306985988417 53.083802451791826 1.782411724493441 H 0.0 **** 0.06
27808 H 84.13783186282444 53.111522697303556 3.4288022133924976 H 0.0 **** 0.06
27809 H 84.42702189786604 54.47741798801288 2.324519589694882 H 0.0 **** 0.06
27810 H 85.21710183936125 52.91000495370191 2.0271157528863952 H 0.0 **** 0.06
27811 C 95.69130727408634 61.61580668040359 54.07449765203107 C 0.0 **** -0.24
27812 H 95.59299466016489 61.9290374262797 53.035170904618255 H 0.0 **** 0.06
27813 H 94.81208326991475 61.03925592158327 54.36323867742197 H 0.0 **** 0.06
27814 H 95.77504410847251 62.49490290697185 54.71266132432002 H 0.0 **** 0.06
27815 H 96.58270095807478 60.99860050234586 54.185140228692795 H 0.0 **** 0.06
27816 C 65.48124379421108 33.936014305051344 107.60493110135633 C 0.0 **** -0.24
27817 H 64.92915680155735 34.87099631606816 107.50321272242746 H 0.0 **** 0.06
27818 H 64.91868719136542 33.1287457756772 107.13663470194115 H 0.0 **** 0.06
27819 H 65.6250997720594 33.71336820274189 108.66217191190074 H 0.0 **** 0.06
27820 H 66.45247069860929 34.032690134521374 107.11903493398799 H 0.0 **** 0.06
27821 C 56.38545384679833 73.89517234858246 104.9412692313133 C 0.0 **** -0.24
27822 H 56.86731653937889 72.93800791947493 104.74177344335314 H 0.0 **** 0.06
27823 H 57.03981004089596 74.50979887142518 105.56015550857316 H 0.0 **** 0.06
27824 H 55.44441319469212 73.72439367438281 105.46475288802864 H 0.0 **** 0.06
27825 H 56.18938470532669 74.4066652313326 103.99933354243322 H 0.0 **** 0.06
27826 C 75.59404788972404 7.602778033472106 2.209322303675199 C 0.0 **** -0.24
27827 H 74.74453164386097 7.0707240287773345 1.780562839744995 H 0.0 **** 0.06
27828 H 76.28145471121866 6.885967602072753 2.659324165552558 H 0.0 **** 0.06
27829 H 75.24101360941276 8.296238651476415 2.9708234375467093 H 0.0 **** 0.06
27830 H 76.10943094491469 8.155615880666858 1.4240570146619689 H 0.0 **** 0.06
27831 C 46.96818882343497 72.73990499514997 103.58831315143155 C 0.0 **** -0.24
27832 H 47.46783728537362 72.37400173642584 102.69062765039837 H 0.0 **** 0.06
27833 H 47.51819793669254 73.59319189314564 103.985993234375 H 0.0 **** 0.06
27834 H 46.937504192023525 71.94729531459427 104.33557032386815 H 0.0 **** 0.06
27835 H 45.952368317009515 73.04545141503351 103.33842312433569 H 0.0 **** 0.06
27836 C 95.53527779546323 62.15658434337411 27.893781041408317 C 0.0 **** -0.24
27837 H 96.33183049808792 61.79692651218522 27.243199806023824 H 0.0 **** 0.06
27838 H 95.60612557172556 61.66055662917822 28.861625060965594 H 0.0 **** 0.06
27839 H 94.56837030493239 61.935176832755104 27.44157798674712 H 0.0 **** 0.06
27840 H 95.6356123811147 63.23323474573036 28.02837600469948 H 0.0 **** 0.06
27841 C 12.04332227538481 8.701699238283481 54.837068894060124 C 0.0 **** -0.24
27842 H 11.87082105124935 8.519829520496103 53.77587487371076 H 0.0 **** 0.06
27843 H 12.156196096095726 7.748249327521279 55.35465543411883 H 0.0 **** 0.06
27844 H 11.195612587489137 9.244370849693922 55.25540939305838 H 0.0 **** 0.06
27845 H 12.950268791909735 9.293075964578946 54.961854848306295 H 0.0 **** 0.06
27846 C 11.42492981268245 58.832946704895754 14.545642345144167 C 0.0 **** -0.24
27847 H 10.428544323980503 59.058824778606144 14.166774327120535 H 0.0 **** 0.06
27848 H 11.600354068964293 59.39651269734568 15.46206946963331 H 0.0 **** 0.06
27849 H 12.169159424648711 59.11047879667094 13.79941103497643 H 0.0 **** 0.06
27850 H 11.500371784655272 57.76539644069876 14.755318233530591 H 0.0 **** 0.06
27851 C 2.391658259827153 81.8003108693342 107.2048013295942 C 0.0 **** -0.24
27852 H 1.7127770904700128 80.95324308386549 107.10970952196459 H 0.0 **** 0.06
27853 H 2.139063882866253 82.3700562903991 108.09902736274384 H 0.0 **** 0.06
27854 H 2.300412270533883 82.44012724881992 106.32745299724616 H 0.0 **** 0.06
27855 H 3.4161001057281197 81.43642381741921 107.28333209260856 H 0.0 **** 0.06
27856 C 26.93205474477344 98.54452536899407 61.63164533121926 C 0.0 **** -0.24
27857 H 27.770180381932846 97.86002516667105 61.76045070629391 H 0.0 **** 0.06
27858 H 27.007944225842607 99.03175533859496 60.65969178615097 H 0.0 **** 0.06
27859 H 26.954606029160345 99.29844400547287 62.419467125355084 H 0.0 **** 0.06
27860 H 25.99683633890521 97.9882404128158 61.68799688256314 H 0.0 **** 0.06
27861 C 85.94634614882258 41.264428759856514 47.190058086602235 C 0.0 **** -0.24
27862 H 84.94705335455279 41.44521786515293 47.587370602804626 H 0.0 **** 0.06
27863 H 85.95192936513328 40.32708695871605 46.6326289751747 H 0.0 **** 0.06
27864 H 86.65869021437658 41.203236820110334 48.0123204517395 H 0.0 **** 0.06
27865 H 86.22596933382994 42.0833883917843 46.52721348238384 H 0.0 **** 0.06
27866 C 13.073763372939311 15.571119975182967 115.02401963568741 C 0.0 **** -0.24
27867 H 12.22741913712099 15.53841653483363 114.33754901415871 H 0.0 **** 0.06
27868 H 13.999951313853558 15.656673376738638 114.45565489058312 H 0.0 **** 0.06
27869 H 13.09488102292147 14.657414770709352 115.61926655727468 H 0.0 **** 0.06
27870 H 12.972457295746665 16.432365759090032 115.68446172159541 H 0.0 **** 0.06
27871 C 97.15242083468237 85.00817928430746 4.150825624047684 C 0.0 **** -0.24
27872 H 96.68232699034394 85.77473719781466 3.535537354681054 H 0.0 **** 0.06
27873 H 98.23423250314704 85.04997285766927 4.019601217011314 H 0.0 **** 0.06
27874 H 96.78740974132083 84.0264389605839 3.8490395990155264 H 0.0 **** 0.06
27875 H 96.9058391146805 85.18064319400901 5.1980617822271995 H 0.0 **** 0.06
27876 C 13.72145957328982 37.26885438835549 32.0882171471051 C 0.0 **** -0.24
27877 H 13.72001167781523 38.2137442381684 32.63099242399841 H 0.0 **** 0.06
27878 H 14.724999328441005 36.84294478430559 32.10515743919572 H 0.0 **** 0.06
27879 H 13.41808882211322 37.44287014837906 31.055684974558403 H 0.0 **** 0.06
27880 H 13.024170807104461 36.57751539628188 32.56058320511215 H 0.0 **** 0.06
27881 C 102.65362126071352 90.21295334013237 56.758860437245396 C 0.0 **** -0.24
27882 H 101.73463219954849 90.70489476588887 56.43857499579327 H 0.0 **** 0.06
27883 H 102.70269160667956 89.21592415646967 56.32048855762756 H 0.0 **** 0.06
27884 H 102.66263978445227 90.13285126326485 57.84613285991227 H 0.0 **** 0.06
27885 H 103.51224003241771 90.79749278314009 56.429635038388206 H 0.0 **** 0.06
27886 C 48.02077349388148 22.838651305773652 103.53880284669737 C 0.0 **** -0.24
27887 H 48.16610567558321 22.366054375660838 104.51021916570943 H 0.0 **** 0.06
27888 H 47.410667461817184 23.73480871880909 103.65816184885603 H 0.0 **** 0.06
27889 H 47.517722399656975 22.142099476160837 102.86764701908913 H 0.0 **** 0.06
27890 H 48.989355191588544 23.11104810980865 103.11945520198287 H 0.0 **** 0.06
27891 C 92.83833833143785 15.611219104076412 110.15137915592939 C 0.0 **** -0.24
27892 H 92.93233699432929 14.60007772047689 110.54610217003716 H 0.0 **** 0.06
27893 H 93.47837183196467 16.284784580484086 110.72144638399581 H 0.0 **** 0.06
27894 H 91.8014367832632 15.937799849611793 110.2342416636487 H 0.0 **** 0.06
27895 H 93.14008022743414 15.62145412684643 109.10411508851371 H 0.0 **** 0.06
27896 C 15.581469025292279 40.509244254159256 81.52376873920389 C 0.0 **** -0.24
27897 H 15.724279848375573 39.43338488415836 81.63096352921707 H 0.0 **** 0.06
27898 H 16.552261433067287 40.99465605334427 81.41525813059394 H 0.0 **** 0.06
27899 H 15.077442352032449 40.89810445406039 82.40890876155086 H 0.0 **** 0.06
27900 H 14.974058058689081 40.7084805767895 80.64188968334105 H 0.0 **** 0.06
27901 C 95.0230229612917 48.99340887942091 0.6081653356776542 C 0.0 **** -0.24
27902 H 95.72850818814564 48.51500763746256 1.2871394010890214 H 0.0 **** 0.06
27903 H 94.57450388042275 49.85723449626798 1.0997626882004425 H 0.0 **** 0.06
27904 H 94.24250242982907 48.283256216653484 0.3366864043482707 H 0.0 **** 0.06
27905 H 95.54792203888789 49.31771178183746 -0.29103187157772936 H 0.0 **** 0.06
27906 C 58.93107258117558 65.83188967180033 12.783197177467258 C 0.0 **** -0.24
27907 H 58.233068013499725 65.6067191987984 11.97746348090564 H 0.0 **** 0.06
27908 H 59.94054996503579 65.55591203637209 12.477678360582743 H 0.0 **** 0.06
27909 H 58.654125945103566 65.26588000608848 13.672960978551075 H 0.0 **** 0.06
27910 H 58.897036733400945 66.89857728860142 13.006567048640449 H 0.0 **** 0.06
27911 C 8.55359733236412 81.52929048474476 14.851029193756574 C 0.0 **** -0.24
27912 H 8.283243147246253 80.81860540880965 15.632324484176849 H 0.0 **** 0.06
27913 H 7.9485213817794715 81.34094489221073 13.964800705945407 H 0.0 **** 0.06
27914 H 9.608926577759178 81.41199341472517 14.603439642836008 H 0.0 **** 0.06
27915 H 8.375012659166543 82.54383809383359 15.206217292442517 H 0.0 **** 0.06
27916 C 34.49232683486541 68.65526914410259 10.90121852518584 C 0.0 **** -0.24
27917 H 33.89503558523685 68.35086394730564 11.761487485822201 H 0.0 **** 0.06
27918 H 34.280461210840016 67.99426420400903 10.060711891485887 H 0.0 **** 0.06
27919 H 35.55008172987465 68.59385359251218 11.154452801259062 H 0.0 **** 0.06
27920 H 34.24167665402979 69.68109822794167 10.630170240195607 H 0.0 **** 0.06
27921 C 41.3731524972693 108.67052897281324 6.140754017219749 C 0.0 **** -0.24
27922 H 40.535985967898114 107.99684462612984 6.324516335361139 H 0.0 **** 0.06
27923 H 42.30210348295543 108.18534029324024 6.440340360562928 H 0.0 **** 0.06
27924 H 41.23622905013485 109.58441001720192 6.719434768567808 H 0.0 **** 0.06
27925 H 41.41602585164202 108.9148790403603 5.079399278971266 H 0.0 **** 0.06
27926 C 55.61312952750802 113.58167209047357 38.09260438267215 C 0.0 **** -0.24
27927 H 56.11230286509087 113.35311323148397 39.033418233456864 H 0.0 **** 0.06
27928 H 56.24647645514642 114.23818745531969 37.495223212365126 H 0.0 **** 0.06
27929 H 54.664500721533244 114.07932441856146 38.295517049622774 H 0.0 **** 0.06
27930 H 55.428973770257784 112.65734868155921 37.54444847751019 H 0.0 **** 0.06
27931 C 96.56484083253059 31.911557271061696 2.19221815351068 C 0.0 **** -0.24
27932 H 96.92850903676228 31.486024965417485 1.2569103639943364 H 0.0 **** 0.06
27933 H 97.30360246749339 31.748153731965118 2.9772395109931153 H 0.0 **** 0.06
27934 H 95.62682786432816 31.43174764761335 2.4697524837278024 H 0.0 **** 0.06
27935 H 96.40108906858566 32.982167787033404 2.0639312559846417 H 0.0 **** 0.06
27936 C 88.27023064598461 96.978399665898 23.323545856309465 C 0.0 **** -0.24
27937 H 87.90488953915317 97.91309734391785 23.74813159708009 H 0.0 **** 0.06
27938 H 87.44452188022612 96.44612112425915 22.851780523867262 H 0.0 **** 0.06
27939 H 88.69695011197612 96.36229800713139 24.11477350118588 H 0.0 **** 0.06
27940 H 89.03640754168109 97.19435836663547 22.578857480865054 H 0.0 **** 0.06
27941 C 26.372572731995717 23.555856208968947 42.50726028711102 C 0.0 **** -0.24
27942 H 25.289198029082343 23.51730266992155 42.62989782751606 H 0.0 **** 0.06
27943 H 26.612045370758807 23.809302405800622 41.47423130283481 H 0.0 **** 0.06
27944 H 26.799704198925525 22.58448689004149 42.75235456193525 H 0.0 **** 0.06
27945 H 26.785523320193562 24.313475483784686 43.17360767133212 H 0.0 **** 0.06
27946 C 88.44659520754118 52.92112488456155 64.23208310798702 C 0.0 **** -0.24
27947 H 89.0180057067164 53.29266177646315 65.08362432000985 H 0.0 **** 0.06
27948 H 88.87696900119147 53.312075387119194 63.30911009949472 H 0.0 **** 0.06
27949 H 87.41145988919118 53.25091211388167 64.31842081177405 H 0.0 **** 0.06
27950 H 88.48192122027052 51.8319140206371 64.21802195731607 H 0.0 **** 0.06
27951 C 77.5089553659119 79.80736563851272 54.83553333769145 C 0.0 **** -0.24
27952 H 78.2370740476577 79.69236222640359 54.03296350842162 H 0.0 **** 0.06
27953 H 76.51370278497154 79.93120831820531 54.40793271656899 H 0.0 **** 0.06
27954 H 77.76137110818502 80.68593666722316 55.430074557946575 H 0.0 **** 0.06
27955 H 77.5260978885122 78.9215831459477 55.47047465175265 H 0.0 **** 0.06
27956 C 56.62683214205304 81.90884668966942 116.02976264050939 C 0.0 **** -0.24
27957 H 56.92673475621395 82.06122456988837 114.99308701396909 H 0.0 **** 0.06
27958 H 55.539180768517234 81.86070462726477 116.0908924300524 H 0.0 **** 0.06
27959 H 56.98904559827724 82.73713448082998 116.63853985662767 H 0.0 **** 0.06
27960 H 57.053450606005065 80.97438113268765 116.39629484889444 H 0.0 **** 0.06
27961 C 91.47722189219047 71.81763996906784 41.6707309467744 C 0.0 **** -0.24
27962 H 91.70882461835976 71.31481377835149 40.73224710911134 H 0.0 **** 0.06
27963 H 91.15530073774178 71.08084957340628 42.40695419591415 H 0.0 **** 0.06
27964 H 90.67879525327308 72.54191328582027 41.50818540860081 H 0.0 **** 0.06
27965 H 92.36612357189904 72.3320687132314 42.03591013345351 H 0.0 **** 0.06
27966 C 63.69229871516586 87.49436737269633 111.10848825365946 C 0.0 **** -0.24
27967 H 63.31741210330205 88.4861019364385 110.854684054865 H 0.0 **** 0.06
27968 H 63.33675372141602 87.21460300083817 112.09986284693392 H 0.0 **** 0.06
27969 H 64.78106152464125 87.50481813184453 111.10119823131606 H 0.0 **** 0.06
27970 H 63.331088018814626 86.77267860907759 110.375018284755 H 0.0 **** 0.06
27971 C 59.31943777455473 10.39477412579933 91.52349229136024 C 0.0 **** -0.24
27972 H 58.42296846302398 9.858503162421727 91.21184793011975 H 0.0 **** 0.06
27973 H 59.03482236286695 11.355673107003867 91.95448567400439 H 0.0 **** 0.06
27974 H 59.96258822114993 10.56024768247886 90.65872988869961 H 0.0 **** 0.06
27975 H 59.85492123590774 9.806774001540845 92.2681453766786 H 0.0 **** 0.06
27976 C 25.03469062753294 35.40706450684752 76.58869139520448 C 0.0 **** -0.24
27977 H 24.82813358818845 34.940556126201756 75.62559219405713 H 0.0 **** 0.06
27978 H 26.06462156617914 35.76173647937745 76.6073447829792 H 0.0 **** 0.06
27979 H 24.886711273003698 34.67663494917829 77.38502852409175 H 0.0 **** 0.06
27980 H 24.35667667718758 36.24827000153367 76.73667933246233 H 0.0 **** 0.06
27981 C 82.35473579345174 13.162611781846635 23.20809062145645 C 0.0 **** -0.24
27982 H 81.7801890461871 14.087832211023084 23.167814847375894 H 0.0 **** 0.06
27983 H 82.85639219218021 13.088740875706605 24.17373392933945 H 0.0 **** 0.06
27984 H 83.09780457664993 13.161281146673929 22.41148538759049 H 0.0 **** 0.06
27985 H 81.68416200373201 12.313132017520275 23.08121333408991 H 0.0 **** 0.06
27986 C 26.22547703079715 35.18544420299294 72.48546705959083 C 0.0 **** -0.24
27987 H 25.71886560436468 35.909638535757466 73.12277887375322 H 0.0 **** 0.06
27988 H 27.17821863048553 34.907762732354776 72.93796954162593 H 0.0 **** 0.06
27989 H 26.402576319350715 35.625805123328675 71.50421527278317 H 0.0 **** 0.06
27990 H 25.601669728887856 34.29716386117886 72.37882497721273 H 0.0 **** 0.06
27991 C 76.96996829940491 95.27716875200224 95.74119772037938 C 0.0 **** -0.24
27992 H 77.15076933774395 95.35274813112102 96.81344802156599 H 0.0 **** 0.06
27993 H 77.72419600111104 95.85424715545923 95.2051192534991 H 0.0 **** 0.06
27994 H 75.98037510493745 95.67141126063987 95.51097804899536 H 0.0 **** 0.06
27995 H 77.02578283589813 94.23294265574259 95.43578081311026 H 0.0 **** 0.06
27996 C 0.8387008626458137 83.11263817276125 37.960301094492905 C 0.0 **** -0.24
27997 H 0.948552322057548 84.1498639424025 38.27559346541358 H 0.0 **** 0.06
27998 H 1.7313182589224088 82.5519697658487 38.23838400751055 H 0.0 **** 0.06
27999 H 0.7056494889616456 83.07278685001756 36.87926216843758 H 0.0 **** 0.06
28000 H -0.03196515523782928 82.674780595393 38.449729805478825 H 0.0 **** 0.06
28001 C 74.12993375629023 57.37850405841829 50.75014801976076 C 0.0 **** -0.24
28002 H 73.85183856814132 58.289959859505984 50.22294669772222 H 0.0 **** 0.06
28003 H 73.30958448589715 56.66234189074851 50.694453860359744 H 0.0 **** 0.06
28004 H 74.33820531230569 57.61083294142418 51.7943396642427 H 0.0 **** 0.06
28005 H 75.0191917991333 56.94882304871925 50.289814138118714 H 0.0 **** 0.06
28006 C 62.922977973734184 92.71395881790372 87.94156849634305 C 0.0 **** -0.24
28007 H 63.855730627617454 92.39766383241263 87.47415865518064 H 0.0 **** 0.06
28008 H 63.10966532007159 92.97082161855946 88.98467364342514 H 0.0 **** 0.06
28009 H 62.197800206736495 91.90248161054132 87.8909933468741 H 0.0 **** 0.06
28010 H 62.531079239450754 93.5853178547085 87.41690881876252 H 0.0 **** 0.06
28011 C 86.08989237318116 14.276098534918418 102.30296762663559 C 0.0 **** -0.24
28012 H 85.5756980058841 14.180238469603012 103.25867673497444 H 0.0 **** 0.06
28013 H 85.70435465013588 15.144515532583242 101.76823817768863 H 0.0 **** 0.06
28014 H 85.92058772521136 13.378306665831161 101.70859345673014 H 0.0 **** 0.06
28015 H 87.15892911149317 14.401333471655988 102.47636213714958 H 0.0 **** 0.06
28016 C 74.97906079239362 40.87956462563204 60.16882269587427 C 0.0 **** -0.24
28017 H 74.86337993998566 41.78486823932971 60.764167328371315 H 0.0 **** 0.06
28018 H 75.7893189933871 40.27629884462948 60.578409092928666 H 0.0 **** 0.06
28019 H 75.21253784083677 41.14990328370746 59.13862830204363 H 0.0 **** 0.06
28020 H 74.05175174933163 40.30790617018354 60.19312221948218 H 0.0 **** 0.06
28021 C 72.57105185715221 43.432454180945086 38.8291809610641 C 0.0 **** -0.24
28022 H 73.23534646352624 44.05882051829235 39.42363767834017 H 0.0 **** 0.06
28023 H 71.75477822076272 43.071773594122334 39.45594718183041 H 0.0 **** 0.06
28024 H 73.12936950062436 42.58365357703461 38.434103856419966 H 0.0 **** 0.06
28025 H 72.16484292463906 44.01610506654289 38.00220091524034 H 0.0 **** 0.06
28026 C 9.948975062801082 47.47024835674457 70.8927764082018 C 0.0 **** -0.24
28027 H 9.08890151555579 48.05199662963181 70.5618453267603 H 0.0 **** 0.06
28028 H 10.599312543588553 48.0994528277234 71.5015480712247 H 0.0 **** 0.06
28029 H 10.50060239978609 47.11059593511349 70.02506027186956 H 0.0 **** 0.06
28030 H 9.606614871553859 46.62098538257206 71.48392855001578 H 0.0 **** 0.06
28031 C 40.7202455827441 79.07679506647153 48.635946886594866 C 0.0 **** -0.24
28032 H 40.546588330672634 79.72163015596283 49.4965616353565 H 0.0 **** 0.06
28033 H 40.56045774444077 78.03714296227326 48.92309381471762 H 0.0 **** 0.06
28034 H 41.74407438841487 79.20435220362711 48.286423446534855 H 0.0 **** 0.06
28035 H 40.02761664569324 79.34317439359282 47.83727974592148 H 0.0 **** 0.06
28036 C 105.39074389357418 103.6867154937519 116.13038391931148 C 0.0 **** -0.24
28037 H 106.18430736228169 103.97323371699144 116.82021742903895 H 0.0 **** 0.06
28038 H 104.61911656107114 104.45763004127585 116.12537586018442 H 0.0 **** 0.06
28039 H 104.95629101169712 102.73965534310017 116.44812854083169 H 0.0 **** 0.06
28040 H 105.80344724818411 103.57918017891171 115.12685708266959 H 0.0 **** 0.06
28041 C 5.926788781446646 84.6446634054615 27.8429801355598 C 0.0 **** -0.24
28042 H 6.101748029288274 83.93922690541567 27.03142206604747 H 0.0 **** 0.06
28043 H 6.38771780064252 84.26829630966597 28.756881270579584 H 0.0 **** 0.06
28044 H 4.8540073561577515 84.76043190581007 27.997723921482418 H 0.0 **** 0.06
28045 H 6.363533875271344 85.6094439752548 27.586529175862154 H 0.0 **** 0.06
28046 C 100.69941075055686 105.27601571925217 27.650389636108343 C 0.0 **** -0.24
28047 H 101.19300521531991 105.28967904530174 26.678742697885525 H 0.0 **** 0.06
28048 H 101.36180798967774 105.70868986968625 28.399750636264116 H 0.0 **** 0.06
28049 H 100.46303257173017 104.24748672069984 27.922933974893738 H 0.0 **** 0.06
28050 H 99.77924757753092 105.85877071919464 27.597414464476685 H 0.0 **** 0.06
28051 C 24.346233391076254 59.385550602404884 73.06546710645739 C 0.0 **** -0.24
28052 H 24.417346330249387 58.44231265754758 72.52330557252557 H 0.0 **** 0.06
28053 H 24.415011337395754 59.193906063059636 74.13721476608956 H 0.0 **** 0.06
28054 H 23.3929262766828 59.8628435272528 72.8419723976532 H 0.0 **** 0.06
28055 H 25.16209874748435 60.04079123095493 72.7609521131175 H 0.0 **** 0.06
28056 C 18.546696530757366 44.50073329667475 77.35559226169244 C 0.0 **** -0.24
28057 H 19.362628715068414 44.3254487075431 78.05754098668524 H 0.0 **** 0.06
28058 H 18.220024120287764 43.55062242345139 76.93293705019857 H 0.0 **** 0.06
28059 H 18.89186690177414 45.15563840509435 76.55557121338643 H 0.0 **** 0.06
28060 H 17.715039504396348 44.972600572871556 77.8784209180061 H 0.0 **** 0.06
28061 C 99.05673514180188 97.22688056398476 38.18817797108585 C 0.0 **** -0.24
28062 H 99.46162034347566 96.83127597022306 39.11982058550382 H 0.0 **** 0.06
28063 H 98.10376512962426 96.74296915569332 37.97181270103093 H 0.0 **** 0.06
28064 H 99.75698913459573 97.03168900052643 37.37647388773733 H 0.0 **** 0.06
28065 H 98.90438460789841 98.30172945256064 38.286321484236424 H 0.0 **** 0.06
28066 C 103.79188334091333 13.276337560362688 19.042477235932267 C 0.0 **** -0.24
28067 H 103.53599900107389 14.164552507728825 19.619798943462115 H 0.0 **** 0.06
28068 H 104.43723890815778 12.630619346916763 19.63792172486137 H 0.0 **** 0.06
28069 H 104.31371573510603 13.573141702233503 18.132542493602728 H 0.0 **** 0.06
28070 H 102.8811148552955 12.739348692647809 18.7802529032393 H 0.0 **** 0.06
28071 C 31.335144867145715 110.40013319348674 44.55712132104506 C 0.0 **** -0.24
28072 H 30.784196731928745 110.52592084512315 43.62493110529053 H 0.0 **** 0.06
28073 H 32.255227018666574 110.98369328472239 44.51647089670391 H 0.0 **** 0.06
28074 H 31.57757530820183 109.34635807155757 44.695419740312445 H 0.0 **** 0.06
28075 H 30.722572297551352 110.7443173941316 45.390276188950224 H 0.0 **** 0.06
28076 C 40.27876244254506 88.98916138579173 110.81149762189867 C 0.0 **** -0.24
28077 H 40.94553528578561 89.76611706736111 110.43572656408477 H 0.0 **** 0.06
28078 H 39.349623455631615 89.44456230108429 111.15540278964168 H 0.0 **** 0.06
28079 H 40.75845704567226 88.46928851200056 111.64017801209354 H 0.0 **** 0.06
28080 H 40.06290538722038 88.27887747769941 110.01244784090972 H 0.0 **** 0.06
28081 C 57.938611706557616 41.11734060141575 86.21760612462322 C 0.0 **** -0.24
28082 H 58.27247465800465 40.097070017498154 86.40816705174379 H 0.0 **** 0.06
28083 H 58.00560634451717 41.32737557725835 85.1502022722496 H 0.0 **** 0.06
28084 H 58.57229318686833 41.81504155492833 86.76576683814295 H 0.0 **** 0.06
28085 H 56.90529449057423 41.22923406432085 86.54597839634368 H 0.0 **** 0.06
28086 C 116.04467703023212 3.775516453977227 30.788336873618995 C 0.0 **** -0.24
28087 H 115.18342049735921 3.980923958970152 31.423256433310947 H 0.0 **** 0.06
28088 H 116.07310841333359 2.7130858687968207 30.546471474513204 H 0.0 **** 0.06
28089 H 116.9588457038991 4.053372264745649 31.314764325321967 H 0.0 **** 0.06
28090 H 115.96477999809412 4.355612120955055 29.869069536193464 H 0.0 **** 0.06
28091 C 53.458849777244716 0.29412218549782665 85.95940579628515 C 0.0 **** -0.24
28092 H 52.989552060829375 -0.6873817150832622 85.89122427598653 H 0.0 **** 0.06
28093 H 54.32869208827578 0.23579812246818221 86.61312024492872 H 0.0 **** 0.06
28094 H 52.744771705367185 1.0097555246281047 86.36613219013904 H 0.0 **** 0.06
28095 H 53.76977212377807 0.6170721808672397 84.9658683992867 H 0.0 **** 0.06
28096 C 63.48328635660718 114.01918304593974 40.77413919642743 C 0.0 **** -0.24
28097 H 62.66310668178704 114.09053900488958 41.4893878712347 H 0.0 **** 0.06
28098 H 64.00652553043827 114.9745104643864 40.726136150000144 H 0.0 **** 0.06
28099 H 63.08631332129542 113.77171461480843 39.79042701386405 H 0.0 **** 0.06
28100 H 64.17598659354309 113.2407279914513 41.09304520414378 H 0.0 **** 0.06
28101 C 46.09440198694952 77.01867550001603 78.83127812879329 C 0.0 **** -0.24
28102 H 45.99791357427799 78.1020494982397 78.89779649213273 H 0.0 **** 0.06
28103 H 46.5252159601572 76.75047238558466 77.86716593934469 H 0.0 **** 0.06
28104 H 45.109870005691704 76.5601969646537 78.92956463602374 H 0.0 **** 0.06
28105 H 46.742713250808805 76.66214564288265 79.631203678411 H 0.0 **** 0.06
28106 C 50.85716142156307 45.484341615138504 99.4893206100788 C 0.0 **** -0.24
28107 H 51.47811349775576 45.05422092887929 98.70343214114229 H 0.0 **** 0.06
28108 H 50.231135575354294 44.70506972929488 99.9240411365497 H 0.0 **** 0.06
28109 H 50.224373214907295 46.26497448173373 99.06556897032425 H 0.0 **** 0.06
28110 H 51.4941011744971 45.91261821767466 100.26285589137578 H 0.0 **** 0.06
28111 C 60.20384405404837 109.23708478256214 21.188020260836907 C 0.0 **** -0.24
28112 H 61.27863882217412 109.41936861456475 21.177166642356795 H 0.0 **** 0.06
28113 H 59.85726341306263 109.1750592688422 22.219346412444395 H 0.0 **** 0.06
28114 H 59.98877808195663 108.3006008661666 20.674398408776625 H 0.0 **** 0.06
28115 H 59.69234513677477 110.05560650035827 20.681078401032607 H 0.0 **** 0.06
28116 C 26.072517430724304 84.47562818252217 75.82415651246464 C 0.0 **** -0.24
28117 H 27.069346315595 84.35389940365661 76.2475419432183 H 0.0 **** 0.06
28118 H 26.080616272304056 85.29307971329058 75.10266540939153 H 0.0 **** 0.06
28119 H 25.364405626743434 84.70024709942521 76.62098579509242 H 0.0 **** 0.06
28120 H 25.775388265308486 83.5532882929194 75.32405111316959 H 0.0 **** 0.06
28121 C 15.63773399367389 24.124521121141584 49.008465751206614 C 0.0 **** -0.24
28122 H 15.855021223833091 23.281506114463014 48.35288135632214 H 0.0 **** 0.06
28123 H 14.564156647871599 24.314979555908224 49.00997425512631 H 0.0 **** 0.06
28124 H 16.163281104490878 25.009143621241947 48.64827655845862 H 0.0 **** 0.06
28125 H 15.967237853190497 23.892491663561657 50.02061812644547 H 0.0 **** 0.06
28126 C 19.552095280509377 3.382775352961289 23.988704917987008 C 0.0 **** -0.24
28127 H 18.59209953167496 3.19284885946405 23.508993508649546 H 0.0 **** 0.06
28128 H 19.505873242553776 3.067396842057164 25.032219184202113 H 0.0 **** 0.06
28129 H 19.776632638311696 4.448561295243479 23.941309852923816 H 0.0 **** 0.06
28130 H 20.33264822354775 2.8235210458092865 23.47409281567461 H 0.0 **** 0.06
28131 C 53.55418050078677 103.13510024259654 82.45442061258015 C 0.0 **** -0.24
28132 H 53.64095015273526 104.19216321795108 82.20413312362427 H 0.0 **** 0.06
28133 H 54.53634005223395 102.66555865370941 82.39607422627574 H 0.0 **** 0.06
28134 H 52.87564206607462 102.64922735585407 81.75301622402495 H 0.0 **** 0.06
28135 H 53.162848976025145 103.0330303640614 83.46761134470611 H 0.0 **** 0.06
28136 C 66.8101128960952 91.71840722771861 25.618447509526455 C 0.0 **** -0.24
28137 H 65.75766145353253 91.82739016012957 25.88076727760982 H 0.0 **** 0.06
28138 H 67.13616258248524 92.59524456968549 25.05799509393026 H 0.0 **** 0.06
28139 H 66.94107693051473 90.82643664520899 25.00687675299347 H 0.0 **** 0.06
28140 H 67.40357574240025 91.62657682635438 26.528301901073434 H 0.0 **** 0.06
28141 C 98.81666215103257 70.84044222441133 102.64400367660875 C 0.0 **** -0.24
28142 H 98.9977883060584 71.48924713756045 101.78634200809682 H 0.0 **** 0.06
28143 H 98.10517870671538 70.06221520468284 102.36621952986502 H 0.0 **** 0.06
28144 H 98.40933348654346 71.4292009624277 103.46536682397834 H 0.0 **** 0.06
28145 H 99.75434147457531 70.38119770089418 102.95608841947836 H 0.0 **** 0.06
28146 C 73.45802003246985 94.50628582673764 28.49017283084804 C 0.0 **** -0.24
28147 H 73.07664989815632 94.82046666906501 27.51826479903889 H 0.0 **** 0.06
28148 H 73.56108134287174 95.37651978974367 29.137558434141965 H 0.0 **** 0.06
28149 H 74.42970758319575 94.03041028636414 28.361721739406327 H 0.0 **** 0.06
28150 H 72.76283861898435 93.7977474297171 28.940966721384328 H 0.0 **** 0.06
28151 C 25.761698210319537 106.20031837428579 113.78771237264823 C 0.0 **** -0.24
28152 H 26.449669563645443 105.36596610919494 113.92261105135546 H 0.0 **** 0.06
28153 H 26.172417310976513 107.08993853485663 114.26468273570882 H 0.0 **** 0.06
28154 H 24.800338664920858 105.95533179708502 114.24047989813084 H 0.0 **** 0.06
28155 H 25.624292439104607 106.38903984048474 112.72307965756875 H 0.0 **** 0.06
28156 C 100.26575723437026 94.42708687600972 3.3579897635501084 C 0.0 **** -0.24
28157 H 99.32828340652279 93.94015736507006 3.626802794219529 H 0.0 **** 0.06
28158 H 100.08335002370501 95.48579335800753 3.1686480912910326 H 0.0 **** 0.06
28159 H 100.67335179947978 93.96192221284207 2.460670172659732 H 0.0 **** 0.06
28160 H 100.97737953510492 94.3218125294398 4.177779408523776 H 0.0 **** 0.06
28161 C 47.614089627303144 75.14752319156844 58.79783588066627 C 0.0 **** -0.24
28162 H 48.66672805392969 75.07603731624246 59.07180683605756 H 0.0 **** 0.06
28163 H 47.04609895897781 74.39220678379971 59.34161040289203 H 0.0 **** 0.06
28164 H 47.50567869217625 74.98360485172483 57.72619193290234 H 0.0 **** 0.06
28165 H 47.238961059789716 76.13821762203631 59.05306523679411 H 0.0 **** 0.06
28166 C 65.90574828000427 51.76112364132183 95.50475651832113 C 0.0 **** -0.24
28167 H 66.48646790690981 51.153522269712994 94.81045451288438 H 0.0 **** 0.06
28168 H 64.90984776423602 51.331117903427355 95.61741649140461 H 0.0 **** 0.06
28169 H 65.821895117584 52.77626526628552 95.11672418164997 H 0.0 **** 0.06
28170 H 66.40486424411432 51.78175712928396 96.4731512901131 H 0.0 **** 0.06
28171 C 97.96606682008095 93.73066149641059 98.22620565513529 C 0.0 **** -0.24
28172 H 97.40315534644319 94.53456377120827 98.69855474499897 H 0.0 **** 0.06
28173 H 97.30469888569385 93.15755391751733 97.57625401466879 H 0.0 **** 0.06
28174 H 98.37967425265441 93.07632086348781 98.99358573908745 H 0.0 **** 0.06
28175 H 98.7788194759276 94.15474728078499 97.63525352303637 H 0.0 **** 0.06
28176 C 39.53443419599478 47.9798161789399 27.052288953356395 C 0.0 **** -0.24
28177 H 38.682541828438076 48.203707340344124 26.409529932755973 H 0.0 **** 0.06
28178 H 40.44301689960363 47.94144355533055 26.451125918448128 H 0.0 **** 0.06
28179 H 39.37896015310759 47.017347443355334 27.53878835509788 H 0.0 **** 0.06
28180 H 39.63230115191864 48.75817782959115 27.80930228727761 H 0.0 **** 0.06
28181 C 112.20601768286195 6.240330692758448 114.56708090061821 C 0.0 **** -0.24
28182 H 112.98072124153876 6.955634459845399 114.84341744750517 H 0.0 **** 0.06
28183 H 112.51603935414582 5.69634409619195 113.67462858548359 H 0.0 **** 0.06
28184 H 111.27635117881405 6.771824005043229 114.3640414734291 H 0.0 **** 0.06
28185 H 112.05166458921354 5.538063014131751 115.38578056912837 H 0.0 **** 0.06
28186 C 82.69447228180482 51.478687502774164 63.94325530253664 C 0.0 **** -0.24
28187 H 83.70137309135569 51.606076656010714 64.33914879017095 H 0.0 **** 0.06
28188 H 82.65063177606172 50.5686131545485 63.34599774945025 H 0.0 **** 0.06
28189 H 82.43904105924227 52.33606530976016 63.32001282097278 H 0.0 **** 0.06
28190 H 81.98652390855224 51.40610024882287 64.76907258008143 H 0.0 **** 0.06
28191 C 33.90797352915416 6.266668043960351 100.00778886735034 C 0.0 **** -0.24
28192 H 32.96303467539869 6.59108037422839 99.5710816287696 H 0.0 **** 0.06
28193 H 34.33632874524106 7.081106651093737 100.59387133286054 H 0.0 **** 0.06
28194 H 34.599458527302716 5.987851421051484 99.2129003643262 H 0.0 **** 0.06
28195 H 33.73340767095445 5.406711666750864 100.65499965284118 H 0.0 **** 0.06
28196 C 73.36404889425842 98.94513244248444 5.027022045979905 C 0.0 **** -0.24
28197 H 72.87032057300758 98.15103221249484 4.467088905017462 H 0.0 **** 0.06
28198 H 74.44405788194683 98.80413633748793 4.982070263050332 H 0.0 **** 0.06
28199 H 73.0364570997354 98.91273143616243 6.06618698169828 H 0.0 **** 0.06
28200 H 73.10369936305017 99.91085902708824 4.594504746226718 H 0.0 **** 0.06
28201 C 29.203787437112034 99.66982861083764 89.1498301603703 C 0.0 **** -0.24
28202 H 30.208348399506107 100.09511878758397 89.15061418387353 H 0.0 **** 0.06
28203 H 29.15146053815684 98.86391467205164 88.41753267507073 H 0.0 **** 0.06
28204 H 28.4824180279564 100.44428308816612 88.89181403015738 H 0.0 **** 0.06
28205 H 28.97703814635298 99.27639064496071 90.14074200919833 H 0.0 **** 0.06
28206 C 73.31237342438766 16.634367479428253 17.723243279850493 C 0.0 **** -0.24
28207 H 73.92487793557939 16.777932750465805 16.833186430802144 H 0.0 **** 0.06
28208 H 72.39336090294893 16.114474686605764 17.4508933404083 H 0.0 **** 0.06
28209 H 73.06630809646362 17.604151746274002 18.155181083565196 H 0.0 **** 0.06
28210 H 73.86386002841857 16.040427656745216 18.451570771404505 H 0.0 **** 0.06
28211 C 52.949486453626605 23.02014169693672 58.789953253287365 C 0.0 **** -0.24
28212 H 53.61489805537033 23.53261005600001 59.48590558060903 H 0.0 **** 0.06
28213 H 51.96915903060378 22.8965762096837 59.25023434475776 H 0.0 **** 0.06
28214 H 53.36329471698994 22.04157413985152 58.54695693707362 H 0.0 **** 0.06
28215 H 52.85286257417911 23.610600322147093 57.87958391911684 H 0.0 **** 0.06
28216 C 78.19032490690597 114.93257203212215 76.4535952835866 C 0.0 **** -0.24
28217 H 77.44404442682116 114.24820573826189 76.85675675296079 H 0.0 **** 0.06
28218 H 77.80823795938025 115.95314313755728 76.49844206241934 H 0.0 **** 0.06
28219 H 78.40364538625826 114.66920775695655 75.41764374293393 H 0.0 **** 0.06
28220 H 79.1050228387706 114.86040581163817 77.04273172383932 H 0.0 **** 0.06
28221 C 47.44795613926868 57.33294042604886 101.83819645983695 C 0.0 **** -0.24
28222 H 46.61611858434526 58.02781494877092 101.95503252288549 H 0.0 **** 0.06
28223 H 47.93636813003718 57.18566005454222 102.80191282685726 H 0.0 **** 0.06
28224 H 48.164556076414726 57.74237695314 101.12613731183302 H 0.0 **** 0.06
28225 H 47.07439591469415 56.378023499681795 101.470322420489 H 0.0 **** 0.06
28226 C 78.17209998220238 104.86003080514391 18.76433611107288 C 0.0 **** -0.24
28227 H 77.42663520366659 105.62161036922461 18.995145228232076 H 0.0 **** 0.06
28228 H 79.04905511866545 105.00728669580934 19.395940771382783 H 0.0 **** 0.06
28229 H 78.46133231999866 104.94137788861843 17.71652779068843 H 0.0 **** 0.06
28230 H 77.75189679310199 103.8720029296432 18.95002701809082 H 0.0 **** 0.06
28231 C 72.89488807852001 81.17764446797872 50.88003155416994 C 0.0 **** -0.24
28232 H 72.93482218651255 81.93691346378779 50.09958183055257 H 0.0 **** 0.06
28233 H 72.19078157516941 81.48715453440178 51.65203963990986 H 0.0 **** 0.06
28234 H 73.8853303620235 81.05544039308677 51.31909333366999 H 0.0 **** 0.06
28235 H 72.56941347427394 80.2305831317604 50.449773415776576 H 0.0 **** 0.06
28236 C 76.44145494332511 28.770475414957758 66.68840584486685 C 0.0 **** -0.24
28237 H 76.52488456677875 28.060368996295395 65.865452408538 H 0.0 **** 0.06
28238 H 76.3904566795513 29.78340617431425 66.28989187919834 H 0.0 **** 0.06
28239 H 77.31297248071735 28.678599083209207 67.33629462092861 H 0.0 **** 0.06
28240 H 75.53848403857117 28.55854219881229 67.2605446340065 H 0.0 **** 0.06
28241 C 73.80502857794784 51.51799461953338 41.076068168973734 C 0.0 **** -0.24
28242 H 73.26686542034568 52.1121924906693 41.81415504318923 H 0.0 **** 0.06
28243 H 73.19872194170335 51.422015001234485 40.174431746864116 H 0.0 **** 0.06
28244 H 74.00704040473272 50.527425201156916 41.48418756725684 H 0.0 **** 0.06
28245 H 74.74668316552021 52.00918574929733 40.83140337388451 H 0.0 **** 0.06
28246 C 0.2703694737803044 36.80419110059415 3.4916221667401306 C 0.0 **** -0.24
28247 H -0.40469630235174137 36.982658724479336 4.32912949298194 H 0.0 **** 0.06
28248 H 0.6205864658903852 37.75871784819424 3.0980834222956872 H 0.0 **** 0.06
28249 H -0.2581091094658827 36.26001212299764 2.7096774625414497 H 0.0 **** 0.06
28250 H 1.1233838472290785 36.21636548172529 3.8318170114270167 H 0.0 **** 0.06
28251 C 1.9484581044570461 114.18334197625617 1.98821981999418 C 0.0 **** -0.24
28252 H 1.013847210923558 114.54724414670443 2.415256895415828 H 0.0 **** 0.06
28253 H 2.238805198508203 114.82080991567096 1.1536450162559735 H 0.0 **** 0.06
28254 H 1.8123787531715152 113.1607461957175 1.6364368792199553 H 0.0 **** 0.06
28255 H 2.7273272562219404 114.20436030552614 2.7509734395913394 H 0.0 **** 0.06
28256 C 110.84623135071591 46.321841430678944 55.47264291937955 C 0.0 **** -0.24
28257 H 110.36426890635873 47.23358808315001 55.82493283488961 H 0.0 **** 0.06
28258 H 111.10593336083232 46.43289400442214 54.41991306220996 H 0.0 **** 0.06
28259 H 110.16299692680745 45.481159321604 55.59287300476345 H 0.0 **** 0.06
28260 H 111.75118789024329 46.14165805675255 56.054256769440286 H 0.0 **** 0.06
28261 C 100.5102587266521 36.9022980422869 55.409344190611336 C 0.0 **** -0.24
28262 H 99.45141976229073 36.64968648363441 55.35610515469412 H 0.0 **** 0.06
28263 H 100.7138035623127 37.7530507135383 54.758953258730884 H 0.0 **** 0.06
28264 H 101.10377293210206 36.047691159416786 55.08493100554355 H 0.0 **** 0.06
28265 H 100.77193441852404 37.1573093512074 56.435692065254926 H 0.0 **** 0.06
28266 C 94.14425669879307 26.283078466131713 112.50723209660654 C 0.0 **** -0.24
28267 H 94.56761022454393 26.937870142532645 113.26854385105524 H 0.0 **** 0.06
28268 H 93.56849407820741 26.877149004234894 111.79659249534022 H 0.0 **** 0.06
28269 H 93.4920050898775 25.54995322784694 112.98071401828463 H 0.0 **** 0.06
28270 H 94.9488891623906 25.768133914864265 111.98246865876791 H 0.0 **** 0.06
28271 C 56.223609672771495 56.0196943672255 95.08774386533327 C 0.0 **** -0.24
28272 H 56.10372771272366 56.61013168277458 94.17856448590504 H 0.0 **** 0.06
28273 H 55.67024384098783 56.48950604754498 95.90164698020251 H 0.0 **** 0.06
28274 H 57.27976161309652 55.965750013594004 95.34870738023568 H 0.0 **** 0.06
28275 H 55.83851109193099 55.013847438092284 94.91906065469507 H 0.0 **** 0.06
28276 C 94.96649488545478 63.54124805180329 8.313048958554305 C 0.0 **** -0.24
28277 H 95.77596059365789 63.17347447326171 7.682511231246025 H 0.0 **** 0.06
28278 H 95.17006009164623 64.57373508221866 8.597925658799795 H 0.0 **** 0.06
28279 H 94.8945963474078 62.92467313687022 9.20943558427092 H 0.0 **** 0.06
28280 H 94.02708902181286 63.49428906896278 7.763115885137978 H 0.0 **** 0.06
28281 C 57.73054292050319 24.61522765758332 31.617071785515506 C 0.0 **** -0.24
28282 H 56.838520109215516 24.800047611062098 32.21633208364983 H 0.0 **** 0.06
28283 H 57.54251706261547 23.79027342690756 30.93072005769244 H 0.0 **** 0.06
28284 H 58.56242101981841 24.36035859246084 32.27441082223382 H 0.0 **** 0.06
28285 H 57.978284948210536 25.512601583376863 31.048872901530842 H 0.0 **** 0.06
28286 C 59.008175958707746 55.621650061528726 43.11205892109204 C 0.0 **** -0.24
28287 H 58.29652533981754 55.12230692933122 42.45424449293532 H 0.0 **** 0.06
28288 H 58.76223336636118 55.39679560245625 44.150396892122686 H 0.0 **** 0.06
28289 H 58.95782183829005 56.69873355079733 42.9515734007254 H 0.0 **** 0.06
28290 H 60.01612329036222 55.268764163530136 42.89202089858476 H 0.0 **** 0.06
28291 C 91.30247487242224 98.98783468694168 19.99219072558833 C 0.0 **** -0.24
28292 H 91.68185455590032 98.17191486682125 20.607512493598875 H 0.0 **** 0.06
28293 H 91.18281326219122 99.8808951234414 20.606391165201103 H 0.0 **** 0.06
28294 H 90.33801023272952 98.70610113311076 19.569997509279204 H 0.0 **** 0.06
28295 H 92.00694336062949 99.1920383215782 19.186192610644156 H 0.0 **** 0.06
28296 C 40.35596589452757 52.41370611615952 25.71378423331381 C 0.0 **** -0.24
28297 H 40.353408943025926 52.20407061536264 24.643906944819165 H 0.0 **** 0.06
28298 H 41.11928997219327 53.15966951823282 25.935157045899643 H 0.0 **** 0.06
28299 H 40.574120826146725 51.49742238725088 26.263184426056952 H 0.0 **** 0.06
28300 H 39.378613621189146 52.79247740667222 26.011824120472745 H 0.0 **** 0.06
28301 C 87.16997619501518 1.3099061738969802 25.25890082149362 C 0.0 **** -0.24
28302 H 87.74592770707568 0.5147420711275785 25.733188624608225 H 0.0 **** 0.06
28303 H 87.79573473211971 1.8284801072347232 24.532444834088473 H 0.0 **** 0.06
28304 H 86.83232194560065 2.015746598659577 26.01768791991303 H 0.0 **** 0.06
28305 H 86.30531422895996 0.8798222659030017 24.753250257377736 H 0.0 **** 0.06
28306 C 45.37072641234735 101.79369107046517 5.896549896162744 C 0.0 **** -0.24
28307 H 46.42560414507878 101.51973586493057 5.904325926620828 H 0.0 **** 0.06
28308 H 44.95533258393655 101.66408611394257 6.896137567337721 H 0.0 **** 0.06
28309 H 44.83532790822878 101.15452025122227 5.194244343319037 H 0.0 **** 0.06
28310 H 45.26854756641242 102.83526633616657 5.591663975510791 H 0.0 **** 0.06
28311 C 107.16297843684708 63.83561980820548 34.96727991392498 C 0.0 **** -0.24
28312 H 106.35431925850665 64.56028886647704 35.05848853970258 H 0.0 **** 0.06
28313 H 107.1875928614997 63.445299692609694 33.94985016023534 H 0.0 **** 0.06
28314 H 106.99785782697398 63.01673820692423 35.66760703994355 H 0.0 **** 0.06
28315 H 108.11239197973134 64.32151626645617 35.192893605897666 H 0.0 **** 0.06
28316 C 101.22775069432956 5.408330508743745 79.84936772838591 C 0.0 **** -0.24
28317 H 100.29778225715222 5.738597669445539 79.38558294359575 H 0.0 **** 0.06
28318 H 101.18123261254098 5.588592777077622 80.92407961470758 H 0.0 **** 0.06
28319 H 102.06242993325338 5.964409995423466 79.42370344762583 H 0.0 **** 0.06
28320 H 101.36710826339302 4.343614240784547 79.66565973789227 H 0.0 **** 0.06
28321 C 44.56376100220615 20.93215900393437 87.7832335886493 C 0.0 **** -0.24
28322 H 45.30178793907078 20.1378927123207 87.6672537822424 H 0.0 **** 0.06
28323 H 44.05781393503145 21.097894223063975 86.83209775814598 H 0.0 **** 0.06
28324 H 45.06443681881808 21.85035018263987 88.09382137651323 H 0.0 **** 0.06
28325 H 43.833444257388976 20.643481924475932 88.53871947453982 H 0.0 **** 0.06
28326 C 57.0031369785095 67.41939546314026 47.18246342336096 C 0.0 **** -0.24
28327 H 57.96493273764551 67.88878702050346 46.97377346923529 H 0.0 **** 0.06
28328 H 56.95411223634309 67.14656861659643 48.237452121186045 H 0.0 **** 0.06
28329 H 56.894825816172045 66.52467178530563 46.57002881188759 H 0.0 **** 0.06
28330 H 56.1996686705848 68.11818111197437 46.950749745348546 H 0.0 **** 0.06
28331 C 60.81732165876834 4.957883987329673 94.69558180323767 C 0.0 **** -0.24
28332 H 60.06662095621521 4.865225089469856 93.91063291348189 H 0.0 **** 0.06
28333 H 60.555512394165596 4.302789192003429 95.52662915252685 H 0.0 **** 0.06
28334 H 60.85398659222623 5.9899567960957985 95.0426398667916 H 0.0 **** 0.06
28335 H 61.79241079579368 4.672196184627909 94.3008266538549 H 0.0 **** 0.06
28336 C 6.171574230026479 10.041076367133257 43.71491479301531 C 0.0 **** -0.24
28337 H 5.935310768905836 9.053819597033055 43.31905426223335 H 0.0 **** 0.06
28338 H 5.2811609968840685 10.668350244219482 43.68253147372516 H 0.0 **** 0.06
28339 H 6.958690491177933 10.494898447590458 43.11124055799869 H 0.0 **** 0.06
28340 H 6.514144686302686 9.947051135685882 44.74545237575859 H 0.0 **** 0.06
28341 C 97.75080972904908 109.15450936024698 12.301642720256112 C 0.0 **** -0.24
28342 H 97.22407569739039 110.08228951665507 12.081972257158938 H 0.0 **** 0.06
28343 H 98.79950465649591 109.37108070123412 12.505116960804997 H 0.0 **** 0.06
28344 H 97.67776352922033 108.48415724379541 11.445407797442783 H 0.0 **** 0.06
28345 H 97.30157530786147 108.67913352827776 13.174016642783826 H 0.0 **** 0.06
28346 C 17.192148758150182 64.7504634822534 112.97474382423326 C 0.0 **** -0.24
28347 H 16.356244292242422 64.06013181918033 112.8690234884356 H 0.0 **** 0.06
28348 H 17.270053233034105 65.06999898964969 114.01355799019483 H 0.0 **** 0.06
28349 H 17.028914499431835 65.6204493500199 112.33787948166562 H 0.0 **** 0.06
28350 H 18.115535814390114 64.25143205843702 112.6779306764146 H 0.0 **** 0.06
28351 C 110.18231553216955 99.34335515388602 106.83409569606965 C 0.0 **** -0.24
28352 H 110.54995845236567 100.03411253231664 107.59272398217686 H 0.0 **** 0.06
28353 H 109.09312928563175 99.37408160540988 106.81128883914832 H 0.0 **** 0.06
28354 H 110.51255345231338 98.3319639779319 107.07358231662852 H 0.0 **** 0.06
28355 H 110.57471043839222 99.63193029727546 105.85898360563479 H 0.0 **** 0.06
28356 C 22.701286703902188 61.925872644071575 94.81460518506756 C 0.0 **** -0.24
28357 H 23.459355174360997 62.63459272361075 94.48178543492816 H 0.0 **** 0.06
28358 H 22.949477778308335 61.57177780889592 95.81546733274484 H 0.0 **** 0.06
28359 H 22.669004245218826 61.08053379277132 94.12756660605788 H 0.0 **** 0.06
28360 H 21.72832251960541 62.41605701289234 94.83276826817308 H 0.0 **** 0.06
28361 C 59.41180838803396 101.29985601183827 80.59551684724917 C 0.0 **** -0.24
28362 H 58.73631194065459 100.65200197062441 81.15368852782069 H 0.0 **** 0.06
28363 H 60.23016602580071 101.61423658821874 81.24289198445504 H 0.0 **** 0.06
28364 H 58.86776516617627 102.17654259199733 80.24440922429193 H 0.0 **** 0.06
28365 H 59.81331559870276 100.75530729832892 79.74074515869825 H 0.0 **** 0.06
28366 C 92.11546534998195 112.74583662841113 60.08060350534135 C 0.0 **** -0.24
28367 H 92.86167646061992 112.52850359138989 60.84457554169787 H 0.0 **** 0.06
28368 H 92.55943359139113 113.37417124173275 59.30839447511686 H 0.0 **** 0.06
28369 H 91.27373143261627 113.26770082701003 60.53411827334913 H 0.0 **** 0.06
28370 H 91.76878511417158 111.81271945839978 59.63623187999864 H 0.0 **** 0.06
28371 C 31.16027934014538 28.477055628451865 50.93793878160676 C 0.0 **** -0.24
28372 H 30.65155311848099 28.030994920621026 50.08411715793114 H 0.0 **** 0.06
28373 H 30.722002959440488 28.09690938048942 51.860934791201856 H 0.0 **** 0.06
28374 H 31.047562331625784 29.560448770034384 50.90131742551915 H 0.0 **** 0.06
28375 H 32.21909321672524 28.22011617363708 50.90504103850636 H 0.0 **** 0.06
28376 C 57.67337746567396 74.07348123949231 22.13607207855017 C 0.0 **** -0.24
28377 H 56.87492467372271 73.7211299853488 22.78964130999674 H 0.0 **** 0.06
28378 H 58.63987163493437 73.83312118138096 22.580114963857454 H 0.0 **** 0.06
28379 H 57.589276405187256 75.15231505734022 22.009887692488974 H 0.0 **** 0.06
28380 H 57.58818934956444 73.58551810070122 21.164409067982035 H 0.0 **** 0.06
28381 C 110.14423917327883 99.26057181766447 83.78429630129583 C 0.0 **** -0.24
28382 H 110.13471468146183 99.93875932023889 84.63808668073787 H 0.0 **** 0.06
28383 H 109.40401508248355 99.58622678955024 83.05367390775515 H 0.0 **** 0.06
28384 H 109.90590912482237 98.25089113537808 84.12021702251198 H 0.0 **** 0.06
28385 H 111.13394285683981 99.26735663112967 83.32774997940868 H 0.0 **** 0.06
28386 C 22.819313087010983 116.37888466368587 106.29378960175745 C 0.0 **** -0.24
28387 H 22.97499791882433 117.43935939248138 106.49590254145113 H 0.0 **** 0.06
28388 H 22.460618714089605 116.25255859714659 105.27313690107698 H 0.0 **** 0.06
28389 H 22.080831729415422 115.98116767382328 106.99077705982253 H 0.0 **** 0.06
28390 H 23.760795436842727 115.84432271598094 106.41808137452864 H 0.0 **** 0.06
28391 C 108.19231158557437 109.48365125960781 111.75685692710272 C 0.0 **** -0.24
28392 H 108.817184543076 110.29310149294713 112.13464269861686 H 0.0 **** 0.06
28393 H 107.72689929477161 108.96314636177189 112.59459202106862 H 0.0 **** 0.06
28394 H 108.8079626590935 108.78377713857924 111.19088166430676 H 0.0 **** 0.06
28395 H 107.41851572866045 109.89449787824287 111.10782300384162 H 0.0 **** 0.06
28396 C 64.62789438654858 108.76633719170147 17.550357741296693 C 0.0 **** -0.24
28397 H 64.91555195564331 107.73634171455487 17.76571446014654 H 0.0 **** 0.06
28398 H 63.99908435573085 109.14431685910277 18.356955736620904 H 0.0 **** 0.06
28399 H 64.07471307608208 108.79899747110215 16.611384500682988 H 0.0 **** 0.06
28400 H 65.52294393672628 109.38280125063649 17.467019087938894 H 0.0 **** 0.06
28401 C 38.376611265784476 14.20348116970689 16.725776706572127 C 0.0 **** -0.24
28402 H 39.05510644370773 14.439884035472403 17.54458307051874 H 0.0 **** 0.06
28403 H 38.77476410873098 13.36383985775737 16.155241168442366 H 0.0 **** 0.06
28404 H 38.27821033759005 15.071447723467031 16.07420610058827 H 0.0 **** 0.06
28405 H 37.399692920564405 13.939191142149667 17.1288700110808 H 0.0 **** 0.06
28406 C 30.58978385335209 99.31682723410668 15.905473292528 C 0.0 **** -0.24
28407 H 29.602511117593167 99.53968557622358 15.500788634796834 H 0.0 **** 0.06
28408 H 30.54111187314078 98.40485564011846 16.50120885909304 H 0.0 **** 0.06
28409 H 30.920666873195756 100.14465656547978 16.5334558171309 H 0.0 **** 0.06
28410 H 31.295612531350088 99.17908592870893 15.085760395806687 H 0.0 **** 0.06
28411 C 101.11235151766454 63.09253345822713 98.23402746205633 C 0.0 **** -0.24
28412 H 100.94685310014154 62.95394042265578 99.30207809977014 H 0.0 **** 0.06
28413 H 100.53388427764091 62.35506406410065 97.678577692228 H 0.0 **** 0.06
28414 H 102.17168931650122 62.966270580026524 98.01122023547876 H 0.0 **** 0.06
28415 H 100.79697856141414 64.09517200167207 97.94518352642831 H 0.0 **** 0.06
28416 C 76.00311048451948 50.36843011699443 21.693636203313567 C 0.0 **** -0.24
28417 H 76.78618478219647 49.61545123153775 21.604768850800557 H 0.0 **** 0.06
28418 H 75.97068965683417 50.73856870229372 22.718101064919182 H 0.0 **** 0.06
28419 H 75.0422890033106 49.924203691596176 21.435469832384964 H 0.0 **** 0.06
28420 H 76.21561191452003 51.194822037744814 21.01475583788757 H 0.0 **** 0.06
28421 C 79.22991473204038 109.83609936883234 59.82085990998365 C 0.0 **** -0.24
28422 H 78.73816076019389 109.60128605431885 60.76465632926477 H 0.0 **** 0.06
28423 H 80.31104502877614 109.8014685600368 59.95588940250252 H 0.0 **** 0.06
28424 H 78.93564174392733 110.83397750208164 59.49610679045924 H 0.0 **** 0.06
28425 H 78.93406125492547 109.10667978723671 59.06610443616876 H 0.0 **** 0.06
28426 C 16.78728679353074 30.769200236341604 86.07964074088562 C 0.0 **** -0.24
28427 H 16.44755097861726 30.746611310179986 87.1154463807799 H 0.0 **** 0.06
28428 H 17.61455869445433 30.07038942691908 85.95376919386206 H 0.0 **** 0.06
28429 H 17.119505619790974 31.776122481879852 85.82865636090403 H 0.0 **** 0.06
28430 H 15.965891915125042 30.483697857993704 85.4222110266949 H 0.0 **** 0.06
28431 C 82.8903113163581 52.9212020949208 94.93363530085449 C 0.0 **** -0.24
28432 H 83.68115818824384 52.20714586592338 95.16026012166765 H 0.0 **** 0.06
28433 H 82.19067025180638 52.47630419635911 94.22621873868871 H 0.0 **** 0.06
28434 H 83.32647272674743 53.81985688916592 94.49653486053509 H 0.0 **** 0.06
28435 H 82.36377909538274 53.183018303558285 95.85148227375964 H 0.0 **** 0.06
28436 C 102.95152228098871 89.85744632311167 106.89706224575897 C 0.0 **** -0.24
28437 H 102.91466522755115 90.90449252933325 106.59870393355018 H 0.0 **** 0.06
28438 H 101.97344093122558 89.55056291547197 107.26863923421516 H 0.0 **** 0.06
28439 H 103.69620876699068 89.72928467185722 107.68275468254416 H 0.0 **** 0.06
28440 H 103.22205119303456 89.24445959607561 106.03717541627552 H 0.0 **** 0.06
28441 C 14.203428739113576 1.2422832357023594 19.01271204171107 C 0.0 **** -0.24
28442 H 14.872092226020726 0.4544758385253598 19.359940531430507 H 0.0 **** 0.06
28443 H 13.222084600727328 1.1141561651416314 19.470835575679118 H 0.0 **** 0.06
28444 H 14.1094415428623 1.1857822095047634 17.928595829470556 H 0.0 **** 0.06
28445 H 14.611687341972981 2.214055461278001 19.291648704472337 H 0.0 **** 0.06
28446 C 62.47292875615432 83.25522283037225 48.09822583792308 C 0.0 **** -0.24
28447 H 61.526780850979634 83.25101908853674 47.5571034571436 H 0.0 **** 0.06
28448 H 63.16737198525371 83.93910401446766 47.610044414306316 H 0.0 **** 0.06
28449 H 62.894680004487554 82.24968658163004 48.100624458926035 H 0.0 **** 0.06
28450 H 62.302882183896315 83.58108163685449 49.125131021316264 H 0.0 **** 0.06
28451 C 105.86930024220081 20.172340791166707 112.6684893522158 C 0.0 **** -0.24
28452 H 106.5301574940766 20.570290563935497 111.89793456524642 H 0.0 **** 0.06
28453 H 105.0003895848144 20.82305810980031 112.7734097221826 H 0.0 **** 0.06
28454 H 106.40458877670841 20.124897237370423 113.61723974420214 H 0.0 **** 0.06
28455 H 105.54309652283456 19.172084874870283 112.38536898702046 H 0.0 **** 0.06
28456 C 66.04667046961845 27.681586778741462 71.7671881618729 C 0.0 **** -0.24
28457 H 66.41827814327095 28.408668744346954 72.48859890725237 H 0.0 **** 0.06
28458 H 66.27180972224858 26.673546042339126 72.11790066009442 H 0.0 **** 0.06
28459 H 66.52712392428054 27.84722946706981 70.80308965910427 H 0.0 **** 0.06
28460 H 64.96790436478867 27.795664906837942 71.65929073910416 H 0.0 **** 0.06
28461 C 53.337697197492254 97.935885215638 19.201699145091993 C 0.0 **** -0.24
28462 H 52.34515720891362 98.1108883012862 19.616148446126203 H 0.0 **** 0.06
28463 H 54.09237343360466 98.19067219951836 19.945722217417597 H 0.0 **** 0.06
28464 H 53.47535626032024 98.55625267243875 18.316338686818312 H 0.0 **** 0.06
28465 H 53.43699232339366 96.88563989720063 18.928180973431097 H 0.0 **** 0.06
28466 C 96.12014204939845 62.700997645693974 84.41545259714752 C 0.0 **** -0.24
28467 H 96.7541607003725 63.38736291240525 84.97712337454357 H 0.0 **** 0.06
28468 H 96.37709506887921 61.674139816154536 84.67658884699301 H 0.0 **** 0.06
28469 H 96.27590661028546 62.855323296672054 83.34776961242937 H 0.0 **** 0.06
28470 H 95.07524237553645 62.88853692818094 84.66226354245589 H 0.0 **** 0.06
28471 C 80.12395633220868 6.205868418838582 115.1709537496935 C 0.0 **** -0.24
28472 H 80.94700178354935 5.817565453177933 114.57169845351703 H 0.0 **** 0.06
28473 H 80.32486777709431 6.023018448949644 116.22738573824088 H 0.0 **** 0.06
28474 H 79.19875521768341 5.704611024393959 114.88510249877002 H 0.0 **** 0.06
28475 H 80.0238522891384 7.277511076605405 115.00039840225382 H 0.0 **** 0.06
28476 C 65.1104238014739 40.36750838268398 95.47134987711223 C 0.0 **** -0.24
28477 H 64.13906507133777 40.2480390257636 95.95255287878996 H 0.0 **** 0.06
28478 H 65.83805760752603 40.71556951096517 96.20437132961831 H 0.0 **** 0.06
28479 H 65.02906449728562 41.09535477533444 94.66478234144222 H 0.0 **** 0.06
28480 H 65.43385290097339 39.40958065884405 95.06570350148775 H 0.0 **** 0.06
28481 C 83.5411390003801 17.51900333590646 0.706347551614698 C 0.0 **** -0.24
28482 H 83.11529160172702 16.614524366761316 0.27115817416495247 H 0.0 **** 0.06
28483 H 84.53549611725117 17.688318117329686 0.29155787812931067 H 0.0 **** 0.06
28484 H 83.61374915708109 17.402079602685433 1.7876220638308382 H 0.0 **** 0.06
28485 H 82.9005730674512 18.369625714173537 0.47431350581911147 H 0.0 **** 0.06
28486 C 116.29421749854397 5.248690095711197 98.37792203276177 C 0.0 **** -0.24
28487 H 116.85097083882891 4.729808571571027 99.15855618283376 H 0.0 **** 0.06
28488 H 115.30606223448437 4.800497758456913 98.27790341735852 H 0.0 **** 0.06
28489 H 116.83050706899411 5.164092070664935 97.43281694370805 H 0.0 **** 0.06
28490 H 116.19180692215572 6.300776452193816 98.64457791489835 H 0.0 **** 0.06
28491 C 78.53477069968054 45.86417653560849 6.834779397413172 C 0.0 **** -0.24
28492 H 79.13141122359923 46.229610439115675 5.999177762473593 H 0.0 **** 0.06
28493 H 77.54111523721923 45.59032935785086 6.478034953953085 H 0.0 **** 0.06
28494 H 78.44807311365295 46.646789051489634 7.588182420726966 H 0.0 **** 0.06
28495 H 79.0181908458641 44.990527274530365 7.271353405312709 H 0.0 **** 0.06
28496 C 31.30953363172634 116.13948057512556 115.65277636643846 C 0.0 **** -0.24
28497 H 30.22640124490215 116.24931947321589 115.70894247128938 H 0.0 **** 0.06
28498 H 31.67929386215104 116.6424614963369 114.75909602867554 H 0.0 **** 0.06
28499 H 31.564129243563883 115.08066432986655 115.60593409248112 H 0.0 **** 0.06
28500 H 31.766445076604953 116.58440372516431 116.53652478431482 H 0.0 **** 0.06
28501 C 75.33719044563637 34.284526801515824 81.26252635027683 C 0.0 **** -0.24
28502 H 76.40003197485774 34.179649593714714 81.04562177278618 H 0.0 **** 0.06
28503 H 74.82118684682493 34.660708052756775 80.37979770994741 H 0.0 **** 0.06
28504 H 75.2020489333691 34.9830334136405 82.08808084712135 H 0.0 **** 0.06
28505 H 74.92592366589597 33.3131210835092 81.53811221321621 H 0.0 **** 0.06
28506 C 15.206483806075859 107.4519568216129 70.43053932558973 C 0.0 **** -0.24
28507 H 15.163289491678306 108.53178786509352 70.57472381892461 H 0.0 **** 0.06
28508 H 15.930812488267918 107.21883245026041 69.65035734133335 H 0.0 **** 0.06
28509 H 14.223016215231901 107.08540793925818 70.1357064872777 H 0.0 **** 0.06
28510 H 15.508169948475828 106.97290201615243 71.361973665037 H 0.0 **** 0.06
28511 C 94.29728135414814 15.883976677138861 61.48940367989309 C 0.0 **** -0.24
28512 H 93.2897512025637 15.702399753126599 61.86281999740095 H 0.0 **** 0.06
28513 H 94.62540610274121 16.876422770919163 61.798814216143114 H 0.0 **** 0.06
28514 H 94.29626225914629 15.824832066917025 60.40031097033693 H 0.0 **** 0.06
28515 H 94.97575526952443 15.133682599638036 61.894203448050064 H 0.0 **** 0.06
28516 C 8.803001168203657 34.20262386550026 11.986303306732214 C 0.0 **** -0.24
28517 H 9.035554140361242 33.22072204607742 11.575448302816916 H 0.0 **** 0.06
28518 H 9.509844370500506 34.43999346163891 12.7814714253369 H 0.0 **** 0.06
28519 H 7.790728487397708 34.19741246810149 12.389250905720413 H 0.0 **** 0.06
28520 H 8.877522562766412 34.952581724529885 11.198543976114934 H 0.0 **** 0.06
28521 C 63.39704854485715 77.76697454405647 108.24160600922491 C 0.0 **** -0.24
28522 H 63.574712797294474 78.43648010235938 109.08375845357048 H 0.0 **** 0.06
28523 H 62.55847257958464 78.13773391230777 107.65288301995443 H 0.0 **** 0.06
28524 H 63.167180175836755 76.76823253813933 108.61476145807134 H 0.0 **** 0.06
28525 H 64.28950013566157 77.72510226918158 107.61677733927115 H 0.0 **** 0.06
28526 C 39.7604658065174 62.140824820873604 1.2743406326430744 C 0.0 **** -0.24
28527 H 39.02421783579621 62.663049177077625 1.884480412999693 H 0.0 **** 0.06
28528 H 40.16918463019647 61.30054077374797 1.8380921501936172 H 0.0 **** 0.06
28529 H 40.56582451235306 62.82588664155401 1.0092828543038905 H 0.0 **** 0.06
28530 H 39.283607075703856 61.77164266612931 0.3660596819811843 H 0.0 **** 0.06
28531 C 67.69631683011124 15.96511007946441 26.868465000920054 C 0.0 **** -0.24
28532 H 67.92196925546276 16.586936700802113 26.001675148536577 H 0.0 **** 0.06
28533 H 67.8079821036331 14.914897175169386 26.59994562779343 H 0.0 **** 0.06
28534 H 66.67295994978238 16.15189751030391 27.19227057897689 H 0.0 **** 0.06
28535 H 68.38441310148986 16.20885564072134 27.678498730188892 H 0.0 **** 0.06
28536 C 100.86253215419745 46.27205587583846 80.54653037696744 C 0.0 **** -0.24
28537 H 100.76456010401785 46.452834300386485 79.47654273743188 H 0.0 **** 0.06
28538 H 99.96169363804142 45.78185268948866 80.91537554078081 H 0.0 **** 0.06
28539 H 100.99804745711054 47.221125958337296 81.06508562030368 H 0.0 **** 0.06
28540 H 101.72582741762011 45.63241055514146 80.72911760935324 H 0.0 **** 0.06
28541 C 114.29173022560687 66.68514230189965 108.8806580512736 C 0.0 **** -0.24
28542 H 114.64923938288095 66.69708923216083 107.85135323771698 H 0.0 **** 0.06
28543 H 114.72187129315509 67.52692879841493 109.42448540933752 H 0.0 **** 0.06
28544 H 114.59261038293835 65.7521202706933 109.35800701481806 H 0.0 **** 0.06
28545 H 113.20468166491271 66.76377437608107 108.88939756478047 H 0.0 **** 0.06
28546 C 116.44091240762967 56.9693684293079 104.75107444212819 C 0.0 **** -0.24
28547 H 116.29901733170328 58.04848307919641 104.80199863714193 H 0.0 **** 0.06
28548 H 116.01317105646788 56.58960036532999 103.82326168367479 H 0.0 **** 0.06
28549 H 115.94522911036032 56.49710867965977 105.59914681790599 H 0.0 **** 0.06
28550 H 117.50678589792327 56.741303389365875 104.7812084442686 H 0.0 **** 0.06
28551 C 43.605825172927624 41.94925944314225 105.0917249909026 C 0.0 **** -0.24
28552 H 43.55342701669184 42.62536922492356 105.94460242239654 H 0.0 **** 0.06
28553 H 42.95616094792724 42.31568054625087 104.29711130229293 H 0.0 **** 0.06
28554 H 43.281707081192216 40.95377456324416 105.39645327674202 H 0.0 **** 0.06
28555 H 44.632162156190965 41.90128542649158 104.72839479514971 H 0.0 **** 0.06
28556 C 3.2951177062940946 44.73731699348852 22.63495240385869 C 0.0 **** -0.24
28557 H 2.443383019839013 44.111167946776646 22.369471040620184 H 0.0 **** 0.06
28558 H 4.080748014365993 44.11772738412168 23.069298805560848 H 0.0 **** 0.06
28559 H 2.9813516722639584 45.487140611121674 23.361278357710248 H 0.0 **** 0.06
28560 H 3.6742524937987167 45.23313232133171 21.74187072518515 H 0.0 **** 0.06
28561 C 20.932415134845826 15.722266847994689 15.93844079132495 C 0.0 **** -0.24
28562 H 21.591413363102504 16.3708711519607 15.359337271702714 H 0.0 **** 0.06
28563 H 21.43857336949418 15.416125440578611 16.854055478354354 H 0.0 **** 0.06
28564 H 20.68080537098274 14.841242902872068 15.34854566132708 H 0.0 **** 0.06
28565 H 20.02050496517961 16.263368577142728 16.189858165889802 H 0.0 **** 0.06
28566 C 41.717801307809324 106.70784768821053 25.771886814987333 C 0.0 **** -0.24
28567 H 41.478927576871655 106.4868313309359 24.731199962826196 H 0.0 **** 0.06
28568 H 41.267809437794966 107.6594796099341 26.05298094537534 H 0.0 **** 0.06
28569 H 42.79973917698961 106.7678229845078 25.89093886785073 H 0.0 **** 0.06
28570 H 41.325101190015864 105.91635399028755 26.410415847912226 H 0.0 **** 0.06
28571 C 93.4564069033868 95.03413286626972 20.717001406535672 C 0.0 **** -0.24
28572 H 93.38348857339568 94.07027004524929 21.221923592526267 H 0.0 **** 0.06
28573 H 92.73144286882055 95.72482669105392 21.14700619874418 H 0.0 **** 0.06
28574 H 93.25011169650503 94.90409762871064 19.655075780718462 H 0.0 **** 0.06
28575 H 94.46202627056155 95.43453053194798 20.845022325648912 H 0.0 **** 0.06
28576 C 37.885089057597185 70.9528093830393 115.98453082016302 C 0.0 **** -0.24
28577 H 37.20478490116821 71.73654023345938 115.65179946588249 H 0.0 **** 0.06
28578 H 37.98083730800167 70.9929745152883 117.07074541564879 H 0.0 **** 0.06
28579 H 38.86319382094368 71.10314846203389 115.52771664478205 H 0.0 **** 0.06
28580 H 37.491515843431586 69.98071886704244 115.69018574038118 H 0.0 **** 0.06
28581 C 42.221382385108804 78.0026545125844 77.04206379354235 C 0.0 **** -0.24
28582 H 43.13241052741893 78.18888248891926 76.47317905960887 H 0.0 **** 0.06
28583 H 42.171351256402495 76.94692563246772 77.31215358258237 H 0.0 **** 0.06
28584 H 41.354756827601996 78.26468611116451 76.43632832041433 H 0.0 **** 0.06
28585 H 42.22950924061895 78.6096244519602 77.94782284384581 H 0.0 **** 0.06
28586 C 73.04748885452281 86.61046870257934 114.26789048083111 C 0.0 **** -0.24
28587 H 72.94634635135742 87.61923673702594 113.86745419725625 H 0.0 **** 0.06
28588 H 72.61035536461617 85.89656614340282 113.5695464165504 H 0.0 **** 0.06
28589 H 72.53050741442883 86.54636146605137 115.22493769628946 H 0.0 **** 0.06
28590 H 74.10388321100515 86.38054768952398 114.40954252918323 H 0.0 **** 0.06
28591 C 76.82694335159178 40.217039951823295 27.716224721630915 C 0.0 **** -0.24
28592 H 77.12492460290343 39.2372692701079 28.09064774279352 H 0.0 **** 0.06
28593 H 77.71121288170471 40.83950619179902 27.58400115144554 H 0.0 **** 0.06
28594 H 76.152314275773 40.68868151404851 28.4305382349908 H 0.0 **** 0.06
28595 H 76.31862769497218 40.09903955511842 26.759396080196943 H 0.0 **** 0.06
28596 C 34.48583636695753 54.3619184774696 49.80640374003893 C 0.0 **** -0.24
28597 H 34.417077185443816 54.109909952259045 48.748349950809825 H 0.0 **** 0.06
28598 H 33.60133074241429 53.994516365606955 50.32623777340939 H 0.0 **** 0.06
28599 H 34.55010637500618 55.44444215249638 49.91830033491502 H 0.0 **** 0.06
28600 H 35.375782487081494 53.89985170541445 50.23274763750945 H 0.0 **** 0.06
28601 C 37.932838610620394 64.24419395999146 66.07379611800465 C 0.0 **** -0.24
28602 H 38.39211919445272 64.83446188037303 66.86737796774062 H 0.0 **** 0.06
28603 H 36.854251876550975 64.39931017643462 66.0837734606541 H 0.0 **** 0.06
28604 H 38.14962363422787 63.18760665887073 66.23559098180507 H 0.0 **** 0.06
28605 H 38.3370469315207 64.55462589905855 65.11057725537879 H 0.0 **** 0.06
28606 C 88.52440145062877 7.03736274491304 58.84723267185729 C 0.0 **** -0.24
28607 H 88.88064809323794 7.918978959253067 59.38125534674693 H 0.0 **** 0.06
28608 H 87.62894993110933 6.65408883745998 59.33631512252354 H 0.0 **** 0.06
28609 H 89.30008014441674 6.271176914354498 58.85540836443163 H 0.0 **** 0.06
28610 H 88.29040518040011 7.3069947292848525 57.81724174111532 H 0.0 **** 0.06
28611 C 86.0863722625416 23.28606662632265 93.08775497185201 C 0.0 **** -0.24
28612 H 86.42076152699889 22.53326954604216 93.80177902983556 H 0.0 **** 0.06
28613 H 85.21455225042456 22.913904735702754 92.54935699737982 H 0.0 **** 0.06
28614 H 86.88892807307627 23.49606972279768 92.37979105213347 H 0.0 **** 0.06
28615 H 85.82340482473393 24.2004394306703 93.62002228427866 H 0.0 **** 0.06
28616 C 11.977856730326714 59.98422356546093 95.5147347414765 C 0.0 **** -0.24
28617 H 11.905796851294411 60.10250426495369 94.43300321921194 H 0.0 **** 0.06
28618 H 11.520944332209819 59.03887939301186 95.80770305265091 H 0.0 **** 0.06
28619 H 11.458681950456143 60.8077771616124 96.00535476760666 H 0.0 **** 0.06
28620 H 13.026778946250733 59.98822370507708 95.81060655694881 H 0.0 **** 0.06
28621 C 48.80765603479633 47.03906676586254 66.00658558770252 C 0.0 **** -0.24
28622 H 48.205032055025356 46.13664143549667 66.11105016057849 H 0.0 **** 0.06
28623 H 48.15240198114332 47.90789302900842 65.94495759215545 H 0.0 **** 0.06
28624 H 49.409214016278355 46.971302068438604 65.10039031076815 H 0.0 **** 0.06
28625 H 49.463845802829404 47.13921243103303 66.87249374297059 H 0.0 **** 0.06
28626 C 8.171252389997306 101.74891165584705 26.66984028531067 C 0.0 **** -0.24
28627 H 8.81844398126745 100.95320299945706 26.299133095138416 H 0.0 **** 0.06
28628 H 7.260049623293327 101.7832957665048 26.071504011910633 H 0.0 **** 0.06
28629 H 8.690979844095665 102.70398840432091 26.596897056643968 H 0.0 **** 0.06
28630 H 7.914893087366551 101.55309189291518 27.711268403214433 H 0.0 **** 0.06
28631 C 12.640685990880485 94.93880652876464 57.80023521353372 C 0.0 **** -0.24
28632 H 13.652877344318199 94.94774527753265 57.397614240995075 H 0.0 **** 0.06
28633 H 12.566625380244119 94.17907624562602 58.579172287035 H 0.0 **** 0.06
28634 H 11.93377244113239 94.7101147702453 57.001769582799376 H 0.0 **** 0.06
28635 H 12.40769295394557 95.91660464427645 58.22230165292769 H 0.0 **** 0.06
28636 C 82.9063469097971 6.5049097124268656 82.37337341970147 C 0.0 **** -0.24
28637 H 81.9739322758827 5.9854834880362375 82.15174687408685 H 0.0 **** 0.06
28638 H 83.74956598293306 5.860296676778887 82.123336122475 H 0.0 **** 0.06
28639 H 82.94108661748521 6.753291675798778 83.4346908027124 H 0.0 **** 0.06
28640 H 82.96080276288683 7.42056700909356 81.78371987953173 H 0.0 **** 0.06
28641 C 10.882743030282114 36.4526756002428 111.3779749762611 C 0.0 **** -0.24
28642 H 11.129734725118055 35.74586099700508 110.58551159356983 H 0.0 **** 0.06
28643 H 11.579246959931226 36.32505939064163 112.2080999572841 H 0.0 **** 0.06
28644 H 9.866525965698017 36.26780515865664 111.72559220840304 H 0.0 **** 0.06
28645 H 10.957183392246336 37.469925190361096 110.9943803553034 H 0.0 **** 0.06
28646 C 57.086002638846196 8.524646491762294 98.6779622695957 C 0.0 **** -0.24
28647 H 56.70225396277277 8.16592381348909 97.72267750426795 H 0.0 **** 0.06
28648 H 57.00827699405252 9.61037778278492 98.7157663366977 H 0.0 **** 0.06
28649 H 58.130029073082966 8.229915929692059 98.78328869969613 H 0.0 **** 0.06
28650 H 56.50177910278276 8.089877084240417 99.490113421545 H 0.0 **** 0.06
28651 C 36.96079411400896 98.26840478052199 115.68333292002535 C 0.0 **** -0.24
28652 H 36.05427522839537 98.87050090104512 115.74694699796942 H 0.0 **** 0.06
28653 H 37.527994870588344 98.55855518015241 114.79940590832479 H 0.0 **** 0.06
28654 H 36.69193767145845 97.21413374589108 115.61273687205124 H 0.0 **** 0.06
28655 H 37.567072036110346 98.43017953480853 116.57482548789773 H 0.0 **** 0.06
28656 C 12.640793619373227 91.80195583573521 86.87265796932743 C 0.0 **** -0.24
28657 H 12.880521998583077 92.86482203118226 86.85849193033741 H 0.0 **** 0.06
28658 H 12.466077772196087 91.48214921697436 87.90039875366676 H 0.0 **** 0.06
28659 H 13.472077286189062 91.23588773736287 86.45219114829038 H 0.0 **** 0.06
28660 H 11.742891213380119 91.62439937521847 86.27986795674792 H 0.0 **** 0.06
28661 C 29.505326441311553 58.774156212844105 47.10907992221574 C 0.0 **** -0.24
28662 H 30.37565415255412 59.39071170699037 47.335307689887856 H 0.0 **** 0.06
28663 H 29.663880349987608 58.255152489543036 46.16318255794321 H 0.0 **** 0.06
28664 H 28.62144960490903 59.40656944924393 47.03333605616158 H 0.0 **** 0.06
28665 H 29.361808964566507 58.043802126212825 47.90529132593937 H 0.0 **** 0.06
28666 C 91.77964927930628 57.44499217906568 71.86178475441267 C 0.0 **** -0.24
28667 H 91.55285465963556 57.10232193948852 70.85233527185278 H 0.0 **** 0.06
28668 H 90.86584583691283 57.802631317478756 72.33719671297112 H 0.0 **** 0.06
28669 H 92.50648946541881 58.255999413026814 71.81564823078975 H 0.0 **** 0.06
28670 H 92.19141764155458 56.61952934591818 72.44107639116666 H 0.0 **** 0.06
28671 C 65.48990526313199 6.054233969249919 76.80099369854292 C 0.0 **** -0.24
28672 H 65.04819269324344 5.11854375742514 77.14480009834782 H 0.0 **** 0.06
28673 H 66.56707534708852 6.028337674200694 76.96515504150568 H 0.0 **** 0.06
28674 H 65.05578267289133 6.885843357138452 77.35574891461005 H 0.0 **** 0.06
28675 H 65.28759933752019 6.181068085876824 75.73784726567393 H 0.0 **** 0.06
28676 C 26.946295977300373 72.7694997455113 43.92973446969551 C 0.0 **** -0.24
28677 H 27.867486331270968 72.22944993573321 44.14638498690597 H 0.0 **** 0.06
28678 H 26.715615654797865 72.682015931754 42.867590322462334 H 0.0 **** 0.06
28679 H 27.072011086980048 73.82090471583871 44.189136263422064 H 0.0 **** 0.06
28680 H 26.130646917224283 72.34525075591952 44.51459114097662 H 0.0 **** 0.06
28681 C 113.79572431505417 66.91640380429482 112.68119966382217 C 0.0 **** -0.24
28682 H 113.18048548515009 67.18740870958669 111.82342786000302 H 0.0 **** 0.06
28683 H 113.26255711043999 66.18935387911421 113.29549131001984 H 0.0 **** 0.06
28684 H 114.005663352406 67.80702320064432 113.27374136952653 H 0.0 **** 0.06
28685 H 114.7326912974608 66.48195651142106 112.33379162586375 H 0.0 **** 0.06
28686 C 25.067583543203966 21.827313885802056 96.10841026882105 C 0.0 **** -0.24
28687 H 25.459343466450093 20.99580895848723 95.52267596433609 H 0.0 **** 0.06
28688 H 25.627067835160176 22.733046241631087 95.87200540595947 H 0.0 **** 0.06
28689 H 25.169670888494466 21.603509920073634 97.17004998846343 H 0.0 **** 0.06
28690 H 24.014731080159095 21.977722020447658 95.86715496766942 H 0.0 **** 0.06
28691 C 35.72056669350417 47.14655795020627 57.711951165913945 C 0.0 **** -0.24
28692 H 34.649069722990745 47.317661598801635 57.815805644372574 H 0.0 **** 0.06
28693 H 35.90050002798219 46.457755447007514 56.88644642184249 H 0.0 **** 0.06
28694 H 36.1115655499122 46.71791841005745 58.63544403673902 H 0.0 **** 0.06
28695 H 36.22172010924456 48.0936029444635 57.510501349087605 H 0.0 **** 0.06
28696 C 25.06948168596557 36.069891472476314 95.0941151581547 C 0.0 **** -0.24
28697 H 24.63028139715138 35.330038912373055 94.42541775114594 H 0.0 **** 0.06
28698 H 25.621531377558227 36.805459535992256 94.50840723439944 H 0.0 **** 0.06
28699 H 25.747284692432288 35.57551436518048 95.78890162577682 H 0.0 **** 0.06
28700 H 24.27794412290774 36.569185613897844 95.65238621821769 H 0.0 **** 0.06
28701 C 83.11092512222325 27.288227157935182 91.97868617037255 C 0.0 **** -0.24
28702 H 82.14912370558193 27.34753597822845 91.46972307129539 H 0.0 **** 0.06
28703 H 83.74778925353138 28.108849816112922 91.64699271140893 H 0.0 **** 0.06
28704 H 83.58887857949566 26.338109453187087 91.74269521151354 H 0.0 **** 0.06
28705 H 82.95614698633148 27.36005667596754 93.0548916199279 H 0.0 **** 0.06
28706 C 37.09370711695884 70.7423702790689 36.67210707349368 C 0.0 **** -0.24
28707 H 37.825824096853125 70.48129046209272 35.90842914451684 H 0.0 **** 0.06
28708 H 36.19881004480919 71.14160270726421 36.19614217304625 H 0.0 **** 0.06
28709 H 37.51807222291046 71.4943109602969 37.33927615243068 H 0.0 **** 0.06
28710 H 36.83461664687195 69.8525459934882 37.24650578319769 H 0.0 **** 0.06
28711 C 0.9163888457582203 17.309203468117403 91.76754737354383 C 0.0 **** -0.24
28712 H 1.0403832324396802 17.545254473720178 90.71046445140482 H 0.0 **** 0.06
28713 H 1.1605806101418636 16.259664253819068 91.93620641577391 H 0.0 **** 0.06
28714 H -0.11664748476029274 17.493948645575216 92.06139614039088 H 0.0 **** 0.06
28715 H 1.581450838182107 17.93706954270928 92.3600764239093 H 0.0 **** 0.06
28716 C 111.85095124492938 82.926699055646 71.197380126788 C 0.0 **** -0.24
28717 H 112.27474919488668 82.78966409642922 72.19122949553304 H 0.0 **** 0.06
28718 H 112.02933249587772 83.94965248356337 70.86441700894079 H 0.0 **** 0.06
28719 H 110.7777991874882 82.73735975562016 71.23050542446384 H 0.0 **** 0.06
28720 H 112.32121612291377 82.23010055068391 70.50266256792452 H 0.0 **** 0.06
28721 C 74.20765198102396 52.165425774751895 57.96100707237167 C 0.0 **** -0.24
28722 H 74.40835986640946 53.17874160539293 57.613485384491895 H 0.0 **** 0.06
28723 H 75.02875138933629 51.510645527116594 57.66676629260283 H 0.0 **** 0.06
28724 H 73.27906822141435 51.8066924688236 57.515759224801286 H 0.0 **** 0.06
28725 H 74.11279299465474 52.166056385103275 59.04624587619975 H 0.0 **** 0.06
28726 C 26.885840815358563 47.73836889931394 62.604587043954716 C 0.0 **** -0.24
28727 H 27.417283315770362 47.01352889719567 61.98667856017915 H 0.0 **** 0.06
28728 H 26.247219617162102 47.21067441748343 63.31355214349838 H 0.0 **** 0.06
28729 H 26.273794565601264 48.37703961017175 61.96818933675856 H 0.0 **** 0.06
28730 H 27.606113110087946 48.34962958155566 63.14815962741037 H 0.0 **** 0.06
28731 C 65.50587907397951 83.10391028326885 0.46278470316426024 C 0.0 **** -0.24
28732 H 65.81021079623423 83.27593639450427 1.4959179330222696 H 0.0 **** 0.06
28733 H 64.4232009251293 82.98627525598215 0.41828766659644145 H 0.0 **** 0.06
28734 H 65.9856699246289 82.19838813664322 0.08918807286895003 H 0.0 **** 0.06
28735 H 65.8059882869278 83.95361259439659 -0.14933156789743407 H 0.0 **** 0.06
28736 C 106.38828993887537 80.94957692014464 77.50789186958662 C 0.0 **** -0.24
28737 H 105.85426991293036 81.182849940984 78.42865472397284 H 0.0 **** 0.06
28738 H 105.94910939044632 80.06360723317354 77.04846377838209 H 0.0 **** 0.06
28739 H 107.43709150266645 80.7591759177894 77.73496825731752 H 0.0 **** 0.06
28740 H 106.31259156037231 81.79230561449197 76.82040507331442 H 0.0 **** 0.06
28741 C 17.459982304107086 54.98586156579823 101.29753233155407 C 0.0 **** -0.24
28742 H 17.378210415953816 54.59040276598517 100.2858591770638 H 0.0 **** 0.06
28743 H 17.35708794156035 54.17100080447173 102.01480613636625 H 0.0 **** 0.06
28744 H 16.672582949082056 55.72065493925739 101.46525804905514 H 0.0 **** 0.06
28745 H 18.432969648552316 55.46116634382399 101.42452445006711 H 0.0 **** 0.06
28746 C 54.93983170012237 38.450153135485095 83.15477498265244 C 0.0 **** -0.24
28747 H 54.883731296302614 37.40210795723431 83.44894332402089 H 0.0 **** 0.06
28748 H 54.33880305977118 39.051707455619066 83.83607586375166 H 0.0 **** 0.06
28749 H 54.56110195469142 38.562663277231195 82.13860804395114 H 0.0 **** 0.06
28750 H 55.977619065338956 38.78357222271194 83.1940707298773 H 0.0 **** 0.06
28751 C 85.4242261005023 101.60380175624789 19.760001140816776 C 0.0 **** -0.24
28752 H 84.4976043067484 102.17368192058132 19.704435677890558 H 0.0 **** 0.06
28753 H 85.35972564868854 100.88300590867908 20.575152665110718 H 0.0 **** 0.06
28754 H 86.25796545432516 102.28306551119329 19.939624207259694 H 0.0 **** 0.06
28755 H 85.58317698055558 101.07612307992872 18.81934508082883 H 0.0 **** 0.06
28756 C 59.18601920120589 65.65387612774794 75.08157427298937 C 0.0 **** -0.24
28757 H 59.65169723710019 65.57459168719078 74.09880473720347 H 0.0 **** 0.06
28758 H 58.12335649622343 65.86585864845179 74.96324271858384 H 0.0 **** 0.06
28759 H 59.65863884044092 66.4599435826768 75.6427942822541 H 0.0 **** 0.06
28760 H 59.31201976578104 64.71441904142333 75.61925370738678 H 0.0 **** 0.06
28761 C 62.20913741998376 63.02913005013016 40.9934016276099 C 0.0 **** -0.24
28762 H 62.117447140132924 63.116548792269754 42.076770870444335 H 0.0 **** 0.06
28763 H 63.150104224609635 63.47537277582887 40.67277283261714 H 0.0 **** 0.06
28764 H 61.377912724457076 63.54737808892244 40.51505608899123 H 0.0 **** 0.06
28765 H 62.191003701086004 61.975509965014 40.71184711516875 H 0.0 **** 0.06
28766 C 9.654804912182584 21.32643701062713 70.02318342514576 C 0.0 **** -0.24
28767 H 9.148467262978087 22.190992629762718 69.59346054404972 H 0.0 **** 0.06
28768 H 9.480134025907688 21.300415768579313 71.0991411317473 H 0.0 **** 0.06
28769 H 10.72484301906087 21.39947468210272 69.83004387564199 H 0.0 **** 0.06
28770 H 9.264774073731417 20.415341344343176 69.56921028792877 H 0.0 **** 0.06
28771 C 63.10954197034388 76.6112753023005 60.60918581165154 C 0.0 **** -0.24
28772 H 63.89237822596957 76.0144160659406 60.140970662888634 H 0.0 **** 0.06
28773 H 63.00229563098478 76.31363549493537 61.65292323693896 H 0.0 **** 0.06
28774 H 62.16687896046687 76.44987256226054 60.08610782453593 H 0.0 **** 0.06
28775 H 63.37842529594459 77.66627106108305 60.55769150599147 H 0.0 **** 0.06
28776 C 0.734597729881898 36.39532831330209 23.40192565693448 C 0.0 **** -0.24
28777 H 0.7543427886644736 35.731831323056895 24.266980505117516 H 0.0 **** 0.06
28778 H 0.22274819981129212 37.32099949647059 23.6677638919289 H 0.0 **** 0.06
28779 H 0.20520753785484658 35.908768066494616 22.58320832531399 H 0.0 **** 0.06
28780 H 1.7550719774046115 36.619449832624994 23.0931980248252 H 0.0 **** 0.06
28781 C 102.8375639494405 25.421353106091516 108.73804905313253 C 0.0 **** -0.24
28782 H 102.37618609896705 25.59108640990545 109.71167893088248 H 0.0 **** 0.06
28783 H 102.25205679693696 25.921495974013617 107.96706110925803 H 0.0 **** 0.06
28784 H 102.87117208963528 24.351721275538985 108.53487151114798 H 0.0 **** 0.06
28785 H 103.85109497090951 25.82279524701734 108.7429541530377 H 0.0 **** 0.06
28786 C 9.742063751920792 48.50704286335804 13.168832029066436 C 0.0 **** -0.24
28787 H 8.97850431164018 47.78195244417864 13.45008070467486 H 0.0 **** 0.06
28788 H 9.518237075442936 49.46791326268132 13.633641383792678 H 0.0 **** 0.06
28789 H 9.753826899065313 48.620865777527825 12.085359429385079 H 0.0 **** 0.06
28790 H 10.716581804560075 48.15740739891308 13.50843256409587 H 0.0 **** 0.06
28791 C 95.55546356387089 34.36259344747704 66.70833423971311 C 0.0 **** -0.24
28792 H 95.16838752537856 35.27307667445312 67.16624517165218 H 0.0 **** 0.06
28793 H 96.51973884446701 34.57047074698806 66.24506525623724 H 0.0 **** 0.06
28794 H 94.85544250692425 34.01169096193333 65.94889494940054 H 0.0 **** 0.06
28795 H 95.67642951060998 33.59478809973626 67.47247176054952 H 0.0 **** 0.06
28796 C 70.5070406657878 32.15778771309314 85.02645947221538 C 0.0 **** -0.24
28797 H 70.37417004944427 33.20469509960558 85.29845443989626 H 0.0 **** 0.06
28798 H 70.67114379761426 32.080440207919054 83.9521352977795 H 0.0 **** 0.06
28799 H 69.6135822475928 31.596193718524525 85.29995942858233 H 0.0 **** 0.06
28800 H 71.36829707404834 31.751034947450904 85.55718312645129 H 0.0 **** 0.06
28801 C 8.52102966181846 64.69541301240895 37.481944946376316 C 0.0 **** -0.24
28802 H 7.516861493827378 64.28330909754834 37.57992249726769 H 0.0 **** 0.06
28803 H 8.91329195206228 64.4654508535126 36.489931929611046 H 0.0 **** 0.06
28804 H 9.16950307204587 64.25682028878452 38.240236850484365 H 0.0 **** 0.06
28805 H 8.485299316339308 65.77649585525984 37.61623266559742 H 0.0 **** 0.06
28806 C 29.57559860911232 33.90464076011534 54.96459219045621 C 0.0 **** -0.24
28807 H 29.728798627126253 34.806809108355196 54.37187216752413 H 0.0 **** 0.06
28808 H 28.540132915841923 33.57642679038008 54.866015103184836 H 0.0 **** 0.06
28809 H 29.792173869194215 34.11554782347747 56.01133775279542 H 0.0 **** 0.06
28810 H 30.24150334782823 33.119297544090614 54.606751603838596 H 0.0 **** 0.06
28811 C 5.139151762559393 92.48945052024212 53.83478131292594 C 0.0 **** -0.24
28812 H 4.961300196122096 91.84230512727748 54.69334208198842 H 0.0 **** 0.06
28813 H 4.7321943947820415 93.48053453648637 54.03588116491761 H 0.0 **** 0.06
28814 H 4.652057529927447 92.06791761402945 52.95544168126304 H 0.0 **** 0.06
28815 H 6.211653840176822 92.56533939225318 53.65360410412654 H 0.0 **** 0.06
28816 C 86.3937908536563 114.11769733800938 78.23310655957081 C 0.0 **** -0.24
28817 H 85.90089483121184 115.07872499946473 78.08846468489463 H 0.0 **** 0.06
28818 H 85.6682120764934 113.388442636582 78.59351325730401 H 0.0 **** 0.06
28819 H 87.19460308253338 114.22629972277429 78.96490522836777 H 0.0 **** 0.06
28820 H 86.81145342438651 113.77732199321647 77.2855430677169 H 0.0 **** 0.06
28821 C 103.75833180965495 24.23852854043504 114.11527475865996 C 0.0 **** -0.24
28822 H 103.12976804524851 23.995517205134945 113.25912991468206 H 0.0 **** 0.06
28823 H 104.68796427699328 23.673223048837237 114.05504933091572 H 0.0 **** 0.06
28824 H 103.23432783945213 23.979232146586938 115.03575900234748 H 0.0 **** 0.06
28825 H 103.98032473171338 25.306135586208903 114.11221533089495 H 0.0 **** 0.06
28826 C 44.90669691849094 62.1360879459794 50.12696004588136 C 0.0 **** -0.24
28827 H 43.90804473919697 61.86118507827618 50.46936816577511 H 0.0 **** 0.06
28828 H 45.621886418365804 61.380706588494235 50.452396589167506 H 0.0 **** 0.06
28829 H 45.18149644276882 63.103051021532934 50.548839911712435 H 0.0 **** 0.06
28830 H 44.91323781113488 62.19824744303432 49.03900952014692 H 0.0 **** 0.06
28831 C 52.206363918510306 85.33945037894182 67.44231232430144 C 0.0 **** -0.24
28832 H 52.21992380643837 86.3632883166033 67.81639785934883 H 0.0 **** 0.06
28833 H 53.138093730069556 85.13322070512095 66.91439195375497 H 0.0 **** 0.06
28834 H 51.365582565443674 85.21302327383012 66.75930211645414 H 0.0 **** 0.06
28835 H 52.10140115018186 84.64875432755105 68.27841021997153 H 0.0 **** 0.06
28836 C 68.34324953388656 11.78672936275473 23.5864814868072 C 0.0 **** -0.24
28837 H 68.63992693925911 12.818910719230225 23.40266887150125 H 0.0 **** 0.06
28838 H 68.74495433908783 11.147092690305865 22.80024985777459 H 0.0 **** 0.06
28839 H 67.25523882840949 11.716378086017919 23.591620074663183 H 0.0 **** 0.06
28840 H 68.73259907059821 11.463088334238272 24.55229640082314 H 0.0 **** 0.06
28841 C 86.68700382879666 79.25346592258703 30.374958538231134 C 0.0 **** -0.24
28842 H 87.02696091142394 78.82803112762593 31.31881729023541 H 0.0 **** 0.06
28843 H 87.53251934987895 79.34393866950282 29.691806836035646 H 0.0 **** 0.06
28844 H 86.25848504632694 80.23940959062568 30.554957711590603 H 0.0 **** 0.06
28845 H 85.93144432663587 78.60421136587618 29.934523270729116 H 0.0 **** 0.06
28846 C 109.78521883666326 75.29290225593431 4.37010977855334 C 0.0 **** -0.24
28847 H 110.19732962350133 75.37785902080793 3.36406550756781 H 0.0 **** 0.06
28848 H 110.46777525334096 74.71702516301951 4.994430393502721 H 0.0 **** 0.06
28849 H 108.81947608197635 74.78845090125563 4.324669804651176 H 0.0 **** 0.06
28850 H 109.6554693268248 76.28861020364653 4.794239140757064 H 0.0 **** 0.06
28851 C 0.1366102713244004 105.05665091067692 65.36960071481926 C 0.0 **** -0.24
28852 H 0.7573495677409028 104.85829301469596 66.24276265662323 H 0.0 **** 0.06
28853 H -0.10591338056121913 104.11600458278534 64.87513157407753 H 0.0 **** 0.06
28854 H 0.677836744706326 105.7025902559322 64.67804359485197 H 0.0 **** 0.06
28855 H -0.7833062708332932 105.55103246899637 65.68266848469443 H 0.0 **** 0.06
28856 C 59.67360371594396 82.57970196073893 65.25245945291687 C 0.0 **** -0.24
28857 H 60.492837771765956 82.02300571732738 65.70868185809837 H 0.0 **** 0.06
28858 H 58.72506172551508 82.11319428029705 65.51786032732915 H 0.0 **** 0.06
28859 H 59.79108355573465 82.57590876374627 64.16866100141584 H 0.0 **** 0.06
28860 H 59.6872700610246 83.60766602018631 65.61593316785627 H 0.0 **** 0.06
28861 C 30.29111793797344 69.4161228889455 48.05371192164711 C 0.0 **** -0.24
28862 H 29.526344411492317 69.73130252978535 48.764183781620375 H 0.0 **** 0.06
28863 H 30.806738867288594 70.29360188159058 47.66204790014967 H 0.0 **** 0.06
28864 H 29.82321439238889 68.87324042523284 47.23308301102563 H 0.0 **** 0.06
28865 H 31.008083678614618 68.76718088976872 48.55783437059284 H 0.0 **** 0.06
28866 C 29.10830239491664 63.91185205603474 0.42829487582886827 C 0.0 **** -0.24
28867 H 29.18232623433414 64.98210994597827 0.2341724525061295 H 0.0 **** 0.06
28868 H 29.16262916413401 63.73263375837062 1.5023113547707112 H 0.0 **** 0.06
28869 H 29.929057352865463 63.3947102597917 -0.06935325605331855 H 0.0 **** 0.06
28870 H 28.158152698024843 63.538087833229405 0.0451044595343717 H 0.0 **** 0.06
28871 C 30.293796832055193 97.67018048986549 76.95358225879409 C 0.0 **** -0.24
28872 H 29.224194637287326 97.47604575381067 76.86307855473027 H 0.0 **** 0.06
28873 H 30.755293124855257 96.88799330768731 77.55604663873893 H 0.0 **** 0.06
28874 H 30.447728286110873 98.6374537759651 77.4330345772575 H 0.0 **** 0.06
28875 H 30.74484308371376 97.6812211701023 75.9616723285879 H 0.0 **** 0.06
28876 C 58.63205637164697 13.75178333987327 7.4180447788558865 C 0.0 **** -0.24
28877 H 59.6000868774243 13.545848464084287 7.873578167608116 H 0.0 **** 0.06
28878 H 57.878279308432184 13.855850463057834 8.198021121940371 H 0.0 **** 0.06
28879 H 58.359546441228645 12.928735841405938 6.756959948318439 H 0.0 **** 0.06
28880 H 58.690499756399106 14.674871636078166 6.842344104961228 H 0.0 **** 0.06
28881 C 39.72731151791874 0.6401535947064456 61.17457131812961 C 0.0 **** -0.24
28882 H 40.76927348213747 0.47816701296742004 60.9014239464031 H 0.0 **** 0.06
28883 H 39.59525625025874 0.44268703525615294 62.238961473259735 H 0.0 **** 0.06
28884 H 39.09136496152237 -0.0331326919117938 60.598688870691944 H 0.0 **** 0.06
28885 H 39.4515529285298 1.672075708076589 60.958898236756056 H 0.0 **** 0.06
28886 C 48.16582758680079 27.527142343238346 105.2168141375586 C 0.0 **** -0.24
28887 H 48.36349032922146 26.817037425409282 104.41270934601357 H 0.0 **** 0.06
28888 H 47.98789265089235 26.983801561022283 106.14478499532811 H 0.0 **** 0.06
28889 H 47.28666843628693 28.12106430361802 104.9685928442349 H 0.0 **** 0.06
28890 H 49.02638369764567 28.18502799444436 105.33915639914713 H 0.0 **** 0.06
28891 C 15.952159530887087 55.7265696242626 111.70774530610218 C 0.0 **** -0.24
28892 H 15.335722353888713 55.13967723592937 112.38902683707138 H 0.0 **** 0.06
28893 H 15.36283144413207 56.006221513858144 110.83410623295295 H 0.0 **** 0.06
28894 H 16.810178203261728 55.1330424651195 111.39213726893314 H 0.0 **** 0.06
28895 H 16.300101611190172 56.62614881149103 112.21496964480907 H 0.0 **** 0.06
28896 C 77.0916636266196 86.17165650538865 48.46249921818699 C 0.0 **** -0.24
28897 H 76.17624550094109 85.78351631021411 48.909327843892896 H 0.0 **** 0.06
28898 H 77.73178019690505 86.58161307086314 49.24449693406169 H 0.0 **** 0.06
28899 H 76.84223592268012 86.9551299637574 47.74777545717353 H 0.0 **** 0.06
28900 H 77.61470589271397 85.36408654331629 47.94979507459547 H 0.0 **** 0.06
28901 C 83.80756808151091 67.10986479850823 38.545760420205085 C 0.0 **** -0.24
28902 H 84.26011607976028 66.2626535350854 38.02869035178574 H 0.0 **** 0.06
28903 H 83.31528329863625 67.75651584012755 37.81944569208855 H 0.0 **** 0.06
28904 H 84.58151413062726 67.67182909979897 39.068080795173586 H 0.0 **** 0.06
28905 H 83.07355859691572 66.74551194746368 39.26394980765983 H 0.0 **** 0.06
28906 C 91.62393652765218 36.75129978244787 98.60186855689537 C 0.0 **** -0.24
28907 H 91.07209881076426 37.43101074329418 97.95277835165192 H 0.0 **** 0.06
28908 H 91.24062332082053 35.73799942769486 98.47643961531804 H 0.0 **** 0.06
28909 H 91.50198766493293 37.05987389208357 99.63973387077954 H 0.0 **** 0.06
28910 H 92.68156662402191 36.7756174778704 98.33804051928328 H 0.0 **** 0.06
28911 C 18.120556532234872 4.1107966418984745 108.1437393512519 C 0.0 **** -0.24
28912 H 18.75000920905802 3.227199675269091 108.24400215534916 H 0.0 **** 0.06
28913 H 18.73448475824526 4.963058145206233 107.84933226094412 H 0.0 **** 0.06
28914 H 17.63746564945299 4.3236560372026105 109.09707140711163 H 0.0 **** 0.06
28915 H 17.36045192231552 3.9305530373978286 107.38339981827096 H 0.0 **** 0.06
28916 C 101.86371619497265 105.61653639141002 95.97292159910586 C 0.0 **** -0.24
28917 H 102.23232135319839 106.14097971550055 95.09075355268561 H 0.0 **** 0.06
28918 H 100.96936773058678 106.11697566537 96.34484679729837 H 0.0 **** 0.06
28919 H 102.63187948000945 105.62212805481505 96.74665340320229 H 0.0 **** 0.06
28920 H 101.62160692653171 104.58709304742928 95.70851570033506 H 0.0 **** 0.06
28921 C 56.663048221551264 0.87190103460388 46.15512926448912 C 0.0 **** -0.24
28922 H 57.10035639109458 1.0385890842033234 45.17120316562506 H 0.0 **** 0.06
28923 H 56.8701475216601 1.73059403279359 46.79479422071287 H 0.0 **** 0.06
28924 H 57.09723976534673 -0.024278793393975207 46.59748357958361 H 0.0 **** 0.06
28925 H 55.58508505410927 0.7436587120367903 46.05621369792593 H 0.0 **** 0.06
28926 C 93.03599191668985 44.47303800407941 43.53032787748742 C 0.0 **** -0.24
28927 H 92.91970773188888 43.41248702081218 43.30433088897013 H 0.0 **** 0.06
28928 H 93.94392996865474 44.62260016495756 44.115759937920245 H 0.0 **** 0.06
28929 H 92.17347641370569 44.817884936173215 44.10178709928459 H 0.0 **** 0.06
28930 H 93.10419755967825 45.03711536499323 42.601071946741 H 0.0 **** 0.06
28931 C 49.03449707910977 45.435294063151105 95.05966897328457 C 0.0 **** -0.24
28932 H 49.604223167605284 46.065548354529014 94.3770609907667 H 0.0 **** 0.06
28933 H 47.999530561146486 45.776588925565044 95.09076749464191 H 0.0 **** 0.06
28934 H 49.46743118770809 45.49648119486337 96.05793052946697 H 0.0 **** 0.06
28935 H 49.06612792205945 44.40296247482516 94.71230043051631 H 0.0 **** 0.06
28936 C 88.51925448934111 49.05334780321704 70.33266557533364 C 0.0 **** -0.24
28937 H 88.34433510721337 49.65020052328086 69.437065188096 H 0.0 **** 0.06
28938 H 89.1099347478326 49.630889082873466 71.04486565938217 H 0.0 **** 0.06
28939 H 89.0587485768678 48.14539804430734 70.06456245364691 H 0.0 **** 0.06
28940 H 87.56274039463634 48.78799529277376 70.78464111094641 H 0.0 **** 0.06
28941 C 5.770369796484431 87.79483853877363 17.07278837394449 C 0.0 **** -0.24
28942 H 5.109261797275083 87.90219400514368 16.214012579350424 H 0.0 **** 0.06
28943 H 6.799802510464771 87.9776832574868 16.76453350165596 H 0.0 **** 0.06
28944 H 5.683927201917415 86.7846536653905 17.473155920942105 H 0.0 **** 0.06
28945 H 5.487498194998169 88.51499009085677 17.841449836522855 H 0.0 **** 0.06
28946 C 30.19688031513931 42.510872262035235 70.8192117789948 C 0.0 **** -0.24
28947 H 29.763029440769742 41.57422993038486 71.1694239015651 H 0.0 **** 0.06
28948 H 31.202359072963873 42.61912211175641 71.22773655142316 H 0.0 **** 0.06
28949 H 29.578510273182758 43.343989765683574 71.1513241153491 H 0.0 **** 0.06
28950 H 30.245025358974488 42.50502098540372 69.7309633250475 H 0.0 **** 0.06
28951 C 78.15563509654737 36.863027761200726 8.381614840629027 C 0.0 **** -0.24
28952 H 78.69504381003478 37.06940320468499 9.306641568184943 H 0.0 **** 0.06
28953 H 78.10323354331803 35.78535112680947 8.22464301798587 H 0.0 **** 0.06
28954 H 78.67741883556442 37.327310689232775 7.545068948253828 H 0.0 **** 0.06
28955 H 77.14701984171839 37.26945820774401 8.452477319033477 H 0.0 **** 0.06
28956 C 12.586883746860373 23.81560093452515 8.15816448551584 C 0.0 **** -0.24
28957 H 13.419847448084465 23.52869014447117 8.799276474325836 H 0.0 **** 0.06
28958 H 12.925221181000538 23.862234648835397 7.1224608050052325 H 0.0 **** 0.06
28959 H 12.214824422511693 24.794127223976204 8.46340403726748 H 0.0 **** 0.06
28960 H 11.788111496225348 23.079408125853263 8.248258920303897 H 0.0 **** 0.06
28961 C 107.78022576601248 100.26007365002982 20.89459187364355 C 0.0 **** -0.24
28962 H 106.85639289781099 100.48818435442931 20.362467512529008 H 0.0 **** 0.06
28963 H 107.54327184675651 99.8879751963828 21.891408082684507 H 0.0 **** 0.06
28964 H 108.38378963370499 101.16377168691511 20.978254724966973 H 0.0 **** 0.06
28965 H 108.33807265725386 99.50102627335997 20.345823330588217 H 0.0 **** 0.06
28966 C 95.45386220809263 11.216280120200423 44.431426586686285 C 0.0 **** -0.24
28967 H 95.0267008538375 10.39622756260674 43.85442231202239 H 0.0 **** 0.06
28968 H 96.47223544550755 10.961351853181213 44.726867894137314 H 0.0 **** 0.06
28969 H 94.8487235411792 11.387566419198976 45.3223369242865 H 0.0 **** 0.06
28970 H 95.46660463072504 12.120683793356648 43.82238664856436 H 0.0 **** 0.06
28971 C 8.9392564747057 79.55564272395412 43.30803821979629 C 0.0 **** -0.24
28972 H 8.112315296291513 79.31388211792338 43.976547101465314 H 0.0 **** 0.06
28973 H 8.547922964645409 79.99697819709385 42.391753867578075 H 0.0 **** 0.06
28974 H 9.489550490548083 78.64663463254067 43.067843140137484 H 0.0 **** 0.06
28975 H 9.606736081607437 80.26531948339297 43.79839413623847 H 0.0 **** 0.06
28976 C 58.62436502214007 37.12105045383558 45.42100813215308 C 0.0 **** -0.24
28977 H 59.02781127642197 38.127563076695736 45.526901305239505 H 0.0 **** 0.06
28978 H 58.98705055277003 36.68035344233695 44.49259158095725 H 0.0 **** 0.06
28979 H 57.535453144725665 37.165926537770076 45.401309724964165 H 0.0 **** 0.06
28980 H 58.9468287573292 36.51038579867546 46.26417820270956 H 0.0 **** 0.06
28981 C 39.03557249406815 95.85371753868287 37.87849099765742 C 0.0 **** -0.24
28982 H 38.97044293131716 95.22315389772075 36.99204496257056 H 0.0 **** 0.06
28983 H 40.08294654850124 96.02414157441297 38.127533566098464 H 0.0 **** 0.06
28984 H 38.53855774106949 95.35976453715728 38.71311049411355 H 0.0 **** 0.06
28985 H 38.54922921443053 96.80968682685756 37.68078672236288 H 0.0 **** 0.06
28986 C 93.60421121169773 98.22196538712731 32.479166793920854 C 0.0 **** -0.24
28987 H 93.93646108623781 98.14120014931953 33.51333160876189 H 0.0 **** 0.06
28988 H 93.96053501118399 99.1606311884369 32.05543362309672 H 0.0 **** 0.06
28989 H 92.51478440862022 98.19706722921643 32.444348387273976 H 0.0 **** 0.06
28990 H 94.00505812932644 97.38785757095116 31.902671431301087 H 0.0 **** 0.06
28991 C 46.62448826290267 22.552454527599124 4.935255550843749 C 0.0 **** -0.24
28992 H 47.24919803414912 22.022181925364603 4.2164352413836355 H 0.0 **** 0.06
28993 H 46.69260038343083 23.625752667779018 4.754739983760089 H 0.0 **** 0.06
28994 H 46.96611700271927 22.33141023774136 5.946080534185512 H 0.0 **** 0.06
28995 H 45.5890421526658 22.230514553758386 4.823680556024442 H 0.0 **** 0.06
28996 C 15.646324585195856 43.60954740795029 42.686262775601584 C 0.0 **** -0.24
28997 H 14.577171786344422 43.40050525821475 42.67024478216575 H 0.0 **** 0.06
28998 H 15.812729892046832 44.66412031871725 42.46601240007355 H 0.0 **** 0.06
28999 H 16.146863002975778 42.997470164771315 41.93665778167572 H 0.0 **** 0.06
29000 H 16.047608147926695 43.37637306023325 43.67239216694265 H 0.0 **** 0.06
29001 C 79.14382567224345 79.9337874880311 29.332388560677515 C 0.0 **** -0.24
29002 H 78.22285882432425 80.25483996797243 29.81886088697908 H 0.0 **** 0.06
29003 H 79.97319061527634 80.548429412573 29.683163551681247 H 0.0 **** 0.06
29004 H 79.04119340205247 80.04317207373697 28.252534578561097 H 0.0 **** 0.06
29005 H 79.33720108382124 78.88923847716572 29.57400438581024 H 0.0 **** 0.06
29006 C 9.874976064257567 11.236202322142503 110.24117936748038 C 0.0 **** -0.24
29007 H 9.818195831251927 10.21223780547453 110.6086226420719 H 0.0 **** 0.06
29008 H 10.366745775640709 11.246013224973069 109.26799474172653 H 0.0 **** 0.06
29009 H 10.447591598290359 11.84314983959871 110.9435925057471 H 0.0 **** 0.06
29010 H 8.869716319092475 11.645052220240103 110.14540097833664 H 0.0 **** 0.06
29011 C 84.08046337353767 68.41347492098237 99.80292327494024 C 0.0 **** -0.24
29012 H 83.13940173963499 67.91731088489206 99.56968497634935 H 0.0 **** 0.06
29013 H 84.39605077819735 69.0138436618031 98.94889282699972 H 0.0 **** 0.06
29014 H 84.84144467924077 67.66491922882841 100.0218542006453 H 0.0 **** 0.06
29015 H 83.94487314135998 69.05916008480563 100.6707993874594 H 0.0 **** 0.06
29016 C 104.32995251564424 0.5329717314880895 98.88841782199921 C 0.0 **** -0.24
29017 H 104.4403179659553 1.1082709641329753 99.80745710680955 H 0.0 **** 0.06
29018 H 105.31221807069355 0.21301490527543265 98.53881654685406 H 0.0 **** 0.06
29019 H 103.8562930179128 1.1523632919996114 98.12673892427316 H 0.0 **** 0.06
29020 H 103.70915557828422 -0.343052626524349 99.08060405261901 H 0.0 **** 0.06
29021 C 24.70684910687075 48.22240981565443 79.65970187173372 C 0.0 **** -0.24
29022 H 23.860495162094395 48.8510750891598 79.3826622536692 H 0.0 **** 0.06
29023 H 25.633559788115377 48.782761496639694 79.53269274017669 H 0.0 **** 0.06
29024 H 24.726686879078983 47.33883320813776 79.02167850936632 H 0.0 **** 0.06
29025 H 24.60620402605221 47.91645981748177 80.7010409772762 H 0.0 **** 0.06
29026 C 15.373624075755629 35.31281429103231 89.36235706082297 C 0.0 **** -0.24
29027 H 14.498054685413138 35.959411143919084 89.4185149089331 H 0.0 **** 0.06
29028 H 16.10263764005944 35.62308740431831 90.11004195818964 H 0.0 **** 0.06
29029 H 15.816545222804251 35.38796288728622 88.36928883258196 H 0.0 **** 0.06
29030 H 15.075625764772639 34.2806856681772 89.55043299469764 H 0.0 **** 0.06
29031 C 108.86543952856985 69.03307784850841 105.19060535708448 C 0.0 **** -0.24
29032 H 108.13054674458874 68.27628521585893 104.91922485563455 H 0.0 **** 0.06
29033 H 108.4661779825442 69.657805512842 105.99060074490652 H 0.0 **** 0.06
29034 H 109.08653238439433 69.65231769367273 104.32140232320012 H 0.0 **** 0.06
29035 H 109.77936323979011 68.5464048995891 105.53126186901991 H 0.0 **** 0.06
29036 C 66.75413823020267 56.87949623647978 97.83257016268124 C 0.0 **** -0.24
29037 H 67.28354678845031 56.807809947104886 96.88280672764992 H 0.0 **** 0.06
29038 H 65.74581888629635 56.48151378564353 97.71694552877557 H 0.0 **** 0.06
29039 H 66.69922786673618 57.92414397560054 98.13957821607963 H 0.0 **** 0.06
29040 H 67.28686394931202 56.305157512066216 98.58977108712921 H 0.0 **** 0.06
29041 C 31.911965818460374 11.329008942986206 113.83249221397733 C 0.0 **** -0.24
29042 H 32.744321655725514 10.691740734025643 114.1329718636622 H 0.0 **** 0.06
29043 H 31.03947788424813 11.099815753997916 114.44523222134715 H 0.0 **** 0.06
29044 H 31.677829879549904 11.150285638216815 112.7831923094249 H 0.0 **** 0.06
29045 H 32.188043770347235 12.375094414469288 113.96995563460274 H 0.0 **** 0.06
29046 C 79.4014241094822 41.73827557644353 78.61192194316652 C 0.0 **** -0.24
29047 H 78.38369761700835 42.056525756160056 78.84000883734996 H 0.0 **** 0.06
29048 H 79.81603521937214 42.379978116057174 77.83313020893812 H 0.0 **** 0.06
29049 H 79.38810540368351 40.70595490521694 78.26343871149487 H 0.0 **** 0.06
29050 H 80.01489853018427 41.81148219096258 79.50897979777531 H 0.0 **** 0.06
29051 C 110.19846719688826 79.12066569592275 62.21351381467712 C 0.0 **** -0.24
29052 H 110.40148405267968 80.19190275096543 62.20732236032244 H 0.0 **** 0.06
29053 H 110.52178990525135 78.68482075483573 61.268608245380555 H 0.0 **** 0.06
29054 H 109.1291927390991 78.9552261218075 62.343563109717046 H 0.0 **** 0.06
29055 H 110.74134001680369 78.65387440344381 63.034504600567736 H 0.0 **** 0.06
29056 C 3.4456030534763045 65.28832931265464 106.34679741677795 C 0.0 **** -0.24
29057 H 2.927794348272357 66.24551974762508 106.27847733336014 H 0.0 **** 0.06
29058 H 4.500190402268629 65.46127969291749 106.56081760641271 H 0.0 **** 0.06
29059 H 3.349813905919973 64.75479056561693 105.4003155623746 H 0.0 **** 0.06
29060 H 3.004950817468284 64.69266521302654 107.14534157274448 H 0.0 **** 0.06
29061 C 103.09237437321468 74.34962156052359 48.1339124636944 C 0.0 **** -0.24
29062 H 104.07994894851791 74.71589204688922 48.41463539404515 H 0.0 **** 0.06
29063 H 102.4302162630336 75.19624580337961 47.951604990796454 H 0.0 **** 0.06
29064 H 102.68773524937481 73.73902937751893 48.94064803916501 H 0.0 **** 0.06
29065 H 103.17179658383358 73.74824758094809 47.22771354760391 H 0.0 **** 0.06
29066 C 3.6547410928495747 7.944937776763894 102.84805294703324 C 0.0 **** -0.24
29067 H 3.4440940959352293 7.736459485547613 101.79882292180221 H 0.0 **** 0.06
29068 H 4.433700409518332 7.268541464102412 103.20311281148233 H 0.0 **** 0.06
29069 H 2.7491221199317355 7.79788352910964 103.43650114857851 H 0.0 **** 0.06
29070 H 3.9926465517689795 8.975475053425413 102.95246907961717 H 0.0 **** 0.06
29071 C 95.31702082895805 114.72161741600293 98.79889234328743 C 0.0 **** -0.24
29072 H 94.31270906107079 114.46373818943917 99.13797531224637 H 0.0 **** 0.06
29073 H 95.83738276119772 115.2642459142408 99.58881499859004 H 0.0 **** 0.06
29074 H 95.25011761381049 115.34845752958101 97.909529980347 H 0.0 **** 0.06
29075 H 95.86507859628696 113.80999106962072 98.56173621624444 H 0.0 **** 0.06
29076 C 96.07938546525898 35.437081653045766 12.095762977332157 C 0.0 **** -0.24
29077 H 95.79168380451821 36.445100735337974 12.395055926877262 H 0.0 **** 0.06
29078 H 95.19711118312 34.79708165175157 12.07896816923406 H 0.0 **** 0.06
29079 H 96.80312035226623 35.039182749380075 12.80798296779713 H 0.0 **** 0.06
29080 H 96.52689274737938 35.46689112177722 11.102886586895806 H 0.0 **** 0.06
29081 C 55.92627308933626 76.29581454111184 52.890725134113126 C 0.0 **** -0.24
29082 H 55.88245295543686 76.51417637148285 51.823689110363716 H 0.0 **** 0.06
29083 H 56.93124169424152 75.9624321009941 53.15135182309189 H 0.0 **** 0.06
29084 H 55.208927312976755 75.51066706364901 53.130219305773736 H 0.0 **** 0.06
29085 H 55.683093784505786 77.19496412378123 53.45638562284716 H 0.0 **** 0.06
29086 C 107.91273237108038 80.52054615934776 44.88473794296018 C 0.0 **** -0.24
29087 H 107.6497790471422 79.73229428836166 45.58977373719873 H 0.0 **** 0.06
29088 H 107.94207400062325 81.478094982578 45.40496991291876 H 0.0 **** 0.06
29089 H 107.16660481698972 80.56081422627955 44.090499829149195 H 0.0 **** 0.06
29090 H 108.89174075608884 80.31044010565245 44.45412443951435 H 0.0 **** 0.06
29091 C 95.44907316538962 96.31174595260103 73.23912964226298 C 0.0 **** -0.24
29092 H 95.94835915771245 96.84066152367575 72.42723507514336 H 0.0 **** 0.06
29093 H 94.39464683459374 96.18153485976933 72.99320238449155 H 0.0 **** 0.06
29094 H 95.53946272724085 96.88898840423556 74.15913552608859 H 0.0 **** 0.06
29095 H 95.91418368391788 95.33514888150387 73.37483650950213 H 0.0 **** 0.06
29096 C 58.525602848760684 107.40429447851491 31.26050850111872 C 0.0 **** -0.24
29097 H 59.48658446166024 106.89102817200984 31.278198994068845 H 0.0 **** 0.06
29098 H 58.51848718291092 108.13441602812222 30.451024793945322 H 0.0 **** 0.06
29099 H 58.36910894539159 107.91338295884628 32.21168648656891 H 0.0 **** 0.06
29100 H 57.728022546854845 106.67745195708432 31.101509539069866 H 0.0 **** 0.06
29101 C 1.2202613528657338 49.891635231594194 105.65276060225958 C 0.0 **** -0.24
29102 H 1.375336311796957 50.74653792591812 104.99436473165343 H 0.0 **** 0.06
29103 H 2.0890289648396276 49.76978046854069 106.29944460636813 H 0.0 **** 0.06
29104 H 1.0836024235658783 48.99208044247682 105.05294024752908 H 0.0 **** 0.06
29105 H 0.3324079365635555 50.060277552508936 106.26229489411145 H 0.0 **** 0.06
29106 C 54.249215076797064 50.73281305504045 105.57383563344845 C 0.0 **** -0.24
29107 H 53.93104879844498 49.74049809695492 105.25313757129314 H 0.0 **** 0.06
29108 H 54.848902146905225 50.64661567536794 106.48101836429112 H 0.0 **** 0.06
29109 H 53.37211988050472 51.34763426211845 105.77482777712464 H 0.0 **** 0.06
29110 H 54.84421313322484 51.19568931207996 104.78642096493007 H 0.0 **** 0.06
29111 C 89.40540837566766 10.732659961528938 116.23873139273034 C 0.0 **** -0.24
29112 H 90.41151428736455 10.365817285208536 116.44333917479973 H 0.0 **** 0.06
29113 H 89.04406608807878 10.299283806901869 115.30531031123938 H 0.0 **** 0.06
29114 H 89.42463089454014 11.818613418465844 116.15321248176717 H 0.0 **** 0.06
29115 H 88.741228280672 10.44351118554286 117.05458241025089 H 0.0 **** 0.06
29116 C 24.797553760008782 79.40432921422814 58.269403740204815 C 0.0 **** -0.24
29117 H 23.874892244086993 78.8261849259103 58.30713713362497 H 0.0 **** 0.06
29118 H 25.65076452164044 78.7266256742171 58.26620616002284 H 0.0 **** 0.06
29119 H 24.854412570867424 80.05643383358529 59.1419194720746 H 0.0 **** 0.06
29120 H 24.810573442624445 80.0091531268655 57.363157946223076 H 0.0 **** 0.06
29121 C 82.05271507213413 49.004625309431844 107.4332023198595 C 0.0 **** -0.24
29122 H 82.67909331301277 48.15471135589837 107.70409442986028 H 0.0 **** 0.06
29123 H 82.15135959437532 49.20348569290144 106.36571985555699 H 0.0 **** 0.06
29124 H 82.36801185893722 49.88290870572632 107.99742057310513 H 0.0 **** 0.06
29125 H 81.01302111058578 48.77809007172368 107.66663569471152 H 0.0 **** 0.06
29126 C 112.24053362321706 10.869311761725047 115.71078348222782 C 0.0 **** -0.24
29127 H 112.5216835631258 11.909101754585812 115.87636856521618 H 0.0 **** 0.06
29128 H 112.45476031994713 10.288130947891428 116.60813614197662 H 0.0 **** 0.06
29129 H 112.8115402039393 10.468104392374872 114.87293018376874 H 0.0 **** 0.06
29130 H 111.17647479999201 10.812290742349873 115.48502632779977 H 0.0 **** 0.06
29131 C 106.97213154316657 38.92372920236784 2.905919202500229 C 0.0 **** -0.24
29132 H 108.0586563353115 38.94434559687352 2.9873856147320765 H 0.0 **** 0.06
29133 H 106.62180033013144 39.86675117269829 2.485327218055218 H 0.0 **** 0.06
29134 H 106.53642422014855 38.78269707837916 3.8948716856608314 H 0.0 **** 0.06
29135 H 106.67164528707491 38.10112296152073 2.256092291552818 H 0.0 **** 0.06
29136 C 34.02098908713674 74.24834815007944 88.43908882253058 C 0.0 **** -0.24
29137 H 33.55149507661782 74.14896847993577 87.46059508207108 H 0.0 **** 0.06
29138 H 34.807734025120524 75.00192015846656 88.38938302766547 H 0.0 **** 0.06
29139 H 34.45252627495402 73.29202524225664 88.73399405500558 H 0.0 **** 0.06
29140 H 33.27359517569034 74.55122744287098 89.17167900652277 H 0.0 **** 0.06
29141 C 32.150653159155496 54.032870264674955 1.1238363002643297 C 0.0 **** -0.24
29142 H 31.880778438390024 52.97670559189311 1.129013007245959 H 0.0 **** 0.06
29143 H 33.218396163525625 54.13605221624593 1.3160401017584746 H 0.0 **** 0.06
29144 H 31.590103163075213 54.55408203699986 1.8998601110404678 H 0.0 **** 0.06
29145 H 31.91190281039283 54.46280559504737 0.1511935934998263 H 0.0 **** 0.06
29146 C 65.02459541767539 7.9909361041735565 88.40084991564555 C 0.0 **** -0.24
29147 H 65.00634874656032 8.419587871530197 89.4026121916445 H 0.0 **** 0.06
29148 H 64.03140033473355 7.618918979562537 88.14709842986366 H 0.0 **** 0.06
29149 H 65.73898916249249 7.1673402086060065 88.37127920265607 H 0.0 **** 0.06
29150 H 65.32151271035005 8.755648737237735 87.68337263157593 H 0.0 **** 0.06
29151 C 6.87342515114949 20.881752594201203 28.362717319362794 C 0.0 **** -0.24
29152 H 7.767714056541706 20.759876961066993 27.75136417763124 H 0.0 **** 0.06
29153 H 6.328156485689419 21.767761945899736 28.03494976029289 H 0.0 **** 0.06
29154 H 7.159527043798448 20.997155851351664 29.40793965693775 H 0.0 **** 0.06
29155 H 6.2379832995704305 20.002687265927705 28.254233314701565 H 0.0 **** 0.06
29156 C 61.440503580194196 10.924003803837678 70.81737958520074 C 0.0 **** -0.24
29157 H 60.616605041829025 11.305776876292498 71.41879157187421 H 0.0 **** 0.06
29158 H 61.565377548308085 11.550269290557765 69.93279995391575 H 0.0 **** 0.06
29159 H 61.223034934957276 9.901053132226366 70.51032540221561 H 0.0 **** 0.06
29160 H 62.35822146409419 10.939656090678213 71.40561327863895 H 0.0 **** 0.06
29161 C 2.405001010546428 3.1908758282917358 75.45324975308668 C 0.0 **** -0.24
29162 H 1.5450420281066073 3.7762442668993685 75.77677600002937 H 0.0 **** 0.06
29163 H 2.7313039617056774 3.538041172854161 74.47160943264069 H 0.0 **** 0.06
29164 H 2.127274682620694 2.139388582618464 75.39264012342198 H 0.0 **** 0.06
29165 H 3.2169961734312693 3.312092189649272 76.1701014832644 H 0.0 **** 0.06
29166 C 27.334062412688496 16.558114602838398 55.42829449612168 C 0.0 **** -0.24
29167 H 28.215219040728414 15.977061085311849 55.69920727592497 H 0.0 **** 0.06
29168 H 26.983689944255644 17.112085810898037 56.29986667776115 H 0.0 **** 0.06
29169 H 26.547121986151495 15.887825888856298 55.083120992929175 H 0.0 **** 0.06
29170 H 27.591065318294 17.2575161816524 54.63206025473063 H 0.0 **** 0.06
29171 C 60.09258709612237 19.054426921294066 116.51296514498338 C 0.0 **** -0.24
29172 H 59.44638831480009 18.19352447313713 116.68587293909371 H 0.0 **** 0.06
29173 H 59.7451729517698 19.89544351826879 117.1128263338386 H 0.0 **** 0.06
29174 H 60.06291962489885 19.323840825708942 115.4571484180143 H 0.0 **** 0.06
29175 H 61.11508192687273 18.802956201761674 116.7952323611369 H 0.0 **** 0.06
29176 C 93.71133776038923 12.628124924286485 96.90008482245182 C 0.0 **** -0.24
29177 H 94.30609760844024 12.760745897501522 97.80385214155248 H 0.0 **** 0.06
29178 H 94.31631583805753 12.139904704676024 96.13546167316392 H 0.0 **** 0.06
29179 H 93.38106404675162 13.601205324747788 96.53621425617177 H 0.0 **** 0.06
29180 H 92.84215815068995 12.009840856873506 97.1259401333269 H 0.0 **** 0.06
29181 C 97.00577832915224 26.210389369844336 69.01631225839063 C 0.0 **** -0.24
29182 H 97.5387978660797 26.826871845903952 69.74023870675478 H 0.0 **** 0.06
29183 H 97.04678567725693 26.684473206146947 68.0361725636144 H 0.0 **** 0.06
29184 H 95.96593920511233 26.103649661312772 69.32624810949716 H 0.0 **** 0.06
29185 H 97.4731520338072 25.226558010110864 68.96419030751977 H 0.0 **** 0.06
29186 C 63.16361176868019 75.21291102366627 113.58215377714615 C 0.0 **** -0.24
29187 H 63.8870725218459 75.62254915846782 112.87778451470854 H 0.0 **** 0.06
29188 H 63.67515478450478 74.55987239942556 114.29050635021444 H 0.0 **** 0.06
29189 H 62.41122591673825 74.64183066236617 113.03967278839265 H 0.0 **** 0.06
29190 H 62.68150763324888 76.02766559200708 114.12194033975732 H 0.0 **** 0.06
29191 C 42.85117206203897 48.29447574006349 76.59757934176872 C 0.0 **** -0.24
29192 H 42.61407850918036 47.24039675749924 76.44819996402691 H 0.0 **** 0.06
29193 H 42.27321547125271 48.89929902916147 75.89839483942089 H 0.0 **** 0.06
29194 H 43.91525842222944 48.45463575380799 76.42452749896819 H 0.0 **** 0.06
29195 H 42.60180517702561 48.580766650384106 77.61903888728958 H 0.0 **** 0.06
29196 C 22.904879234816747 38.80743796160709 4.592346453765799 C 0.0 **** -0.24
29197 H 23.961113376763535 38.62105652714595 4.786574059935106 H 0.0 **** 0.06
29198 H 22.29995806960588 38.256907950110744 5.3133603928702655 H 0.0 **** 0.06
29199 H 22.658248158507945 38.47630782499988 3.5832558002585415 H 0.0 **** 0.06
29200 H 22.70128592357304 39.87391546933807 4.685025547574867 H 0.0 **** 0.06
29201 C 6.474043216744519 66.45367806109772 88.32814216422116 C 0.0 **** -0.24
29202 H 6.208300362776015 65.7388796328716 87.54906454808517 H 0.0 **** 0.06
29203 H 7.515086412819642 66.30637577471134 88.61580876374958 H 0.0 **** 0.06
29204 H 5.831568067501337 66.3013582068404 89.19541796362378 H 0.0 **** 0.06
29205 H 6.340655835177074 67.46713248747574 87.95061884449672 H 0.0 **** 0.06
29206 C 37.04256351533826 1.2140740659998759 104.06313115241434 C 0.0 **** -0.24
29207 H 36.68545584126599 2.0197378036763016 104.7033638633929 H 0.0 **** 0.06
29208 H 37.49546314918035 1.6369093313240572 103.16561050996671 H 0.0 **** 0.06
29209 H 36.2053874964958 0.5754176899824177 103.78109512101571 H 0.0 **** 0.06
29210 H 37.7844811942619 0.6240247939215919 104.60116180025477 H 0.0 **** 0.06
29211 C 65.80687468829711 97.65752268675675 55.73886537550141 C 0.0 **** -0.24
29212 H 66.75591089458572 97.5818513277786 55.206437734641874 H 0.0 **** 0.06
29213 H 65.22680774441054 98.48428009020938 55.330388412215704 H 0.0 **** 0.06
29214 H 65.99791485447147 97.8338636075934 56.79730974715783 H 0.0 **** 0.06
29215 H 65.24913754605726 96.72813069039097 55.620337707054155 H 0.0 **** 0.06
29216 C 115.28160537458193 79.16745444530883 92.57934589235231 C 0.0 **** -0.24
29217 H 116.36092673147729 79.086439952393 92.45543885819592 H 0.0 **** 0.06
29218 H 114.87390245416256 78.19560524175037 92.8567019678112 H 0.0 **** 0.06
29219 H 114.83193877179795 79.49647434769261 91.64192395961629 H 0.0 **** 0.06
29220 H 115.05969556059188 79.89227389191885 93.36310338983122 H 0.0 **** 0.06
29221 C 76.68335542728212 38.05601518846433 111.05171850239014 C 0.0 **** -0.24
29222 H 77.28327070551333 38.55811355594955 110.29197320420741 H 0.0 **** 0.06
29223 H 77.24761815031806 38.003239484658906 111.98263861261131 H 0.0 **** 0.06
29224 H 76.44109300122909 37.048669345635744 110.71512058832849 H 0.0 **** 0.06
29225 H 75.76236465814748 38.61640552226092 111.21525961262603 H 0.0 **** 0.06
29226 C 24.825248170390594 85.57223269873367 0.7718835106910547 C 0.0 **** -0.24
29227 H 24.34330759073606 86.27119665245863 0.08773390763005295 H 0.0 **** 0.06
29228 H 25.905569470220343 85.71363859981733 0.7327267007673015 H 0.0 **** 0.06
29229 H 24.580501805399763 84.5506392683314 0.47962318937348414 H 0.0 **** 0.06
29230 H 24.471045478645806 85.75499375728594 1.7859292486242566 H 0.0 **** 0.06
29231 C 22.48827018324863 42.415278461890125 65.98650513437332 C 0.0 **** -0.24
29232 H 23.531332458610336 42.64304157167055 65.76681439316366 H 0.0 **** 0.06
29233 H 22.037706175718085 43.2556885949887 66.51509371109171 H 0.0 **** 0.06
29234 H 22.435333855255294 41.52327067244963 66.61045769370509 H 0.0 **** 0.06
29235 H 21.95008239084723 42.24035760245653 65.05525569327523 H 0.0 **** 0.06
29236 C 95.02857699460952 4.231382402400413 57.34891378052341 C 0.0 **** -0.24
29237 H 95.49092366683524 3.2573942160169054 57.508843535420375 H 0.0 **** 0.06
29238 H 95.6210557385096 4.999641097483078 57.845371692839585 H 0.0 **** 0.06
29239 H 94.02017536938112 4.225434806975969 57.7619473372636 H 0.0 **** 0.06
29240 H 94.98282643738636 4.440998221242253 56.28063197722596 H 0.0 **** 0.06
29241 C 56.077707608564076 26.796406215091054 0.060698882900965145 C 0.0 **** -0.24
29242 H 55.45546617717315 26.669895194565413 0.9469091031438666 H 0.0 **** 0.06
29243 H 56.05736819247141 25.88149439035257 -0.5318495579368232 H 0.0 **** 0.06
29244 H 57.10260279431146 27.010298429467355 0.36408963777716963 H 0.0 **** 0.06
29245 H 55.69525251372641 27.62492564562686 -0.53640385987336 H 0.0 **** 0.06
29246 C 98.03336502505269 108.37749834266265 66.24877202688606 C 0.0 **** -0.24
29247 H 98.27683314135174 109.38302611768262 65.90651758883257 H 0.0 **** 0.06
29248 H 96.99467940679 108.3466687834399 66.5774111506745 H 0.0 **** 0.06
29249 H 98.68551110959444 108.10866052816482 67.07939928672863 H 0.0 **** 0.06
29250 H 98.17734112436912 107.67085418853634 65.43100682286928 H 0.0 **** 0.06
29251 C 81.62122949913808 26.401321962583296 79.80899881425304 C 0.0 **** -0.24
29252 H 81.51881440815188 26.067947786628707 78.77591032847005 H 0.0 **** 0.06
29253 H 82.67555731970887 26.42052318781336 80.08192193497257 H 0.0 **** 0.06
29254 H 81.08708564229693 25.713473693146767 80.46592816655479 H 0.0 **** 0.06
29255 H 81.20023590447994 27.400994178603426 79.91119351295723 H 0.0 **** 0.06
29256 C 20.208200874649762 94.3232085473027 113.19776867008586 C 0.0 **** -0.24
29257 H 19.225251214730434 93.8531846853285 113.1593300331015 H 0.0 **** 0.06
29258 H 20.260675339265347 95.11616553987989 112.45111101244179 H 0.0 **** 0.06
29259 H 20.97524322130178 93.57782397368027 112.9911923998794 H 0.0 **** 0.06
29260 H 20.36960451245686 94.74698409173484 114.18908150294413 H 0.0 **** 0.06
29261 C 104.39547322449724 17.806180358559118 13.178459460608977 C 0.0 **** -0.24
29262 H 103.57928579088991 17.540634116461433 13.849992933049307 H 0.0 **** 0.06
29263 H 105.29579130478623 18.003059184319 13.761039141122666 H 0.0 **** 0.06
29264 H 104.12462185880611 18.697739996816097 12.613939446896993 H 0.0 **** 0.06
29265 H 104.58063587378425 16.982710098486393 12.489354649927279 H 0.0 **** 0.06
29266 C 92.57593871325332 96.51576566325642 6.853028908665721 C 0.0 **** -0.24
29267 H 92.64789650243074 97.5007523007259 6.3902585024181064 H 0.0 **** 0.06
29268 H 92.99737246074585 95.76782890147507 6.1803727987515344 H 0.0 **** 0.06
29269 H 91.53026666339929 96.28210328458746 7.048491728039394 H 0.0 **** 0.06
29270 H 93.13062519960414 96.51450433951044 7.792161149573801 H 0.0 **** 0.06
29271 C 43.525218574048665 34.99332256549428 111.46308847348224 C 0.0 **** -0.24
29272 H 44.45653074623249 34.682187956443414 110.98864150626156 H 0.0 **** 0.06
29273 H 42.776605185477166 34.21059115800324 111.34267056052953 H 0.0 **** 0.06
29274 H 43.170483382780986 35.91192863035994 110.99669405409485 H 0.0 **** 0.06
29275 H 43.70008254770593 35.16857500110655 112.5242751203483 H 0.0 **** 0.06
29276 C 86.07976830158614 33.51387207826002 98.69802400043369 C 0.0 **** -0.24
29277 H 86.44040899802897 33.270323043822316 97.6988848232877 H 0.0 **** 0.06
29278 H 84.99000327008577 33.54371037352672 98.69303994799151 H 0.0 **** 0.06
29279 H 86.46878747793679 34.48686822380097 98.99719036696095 H 0.0 **** 0.06
29280 H 86.42019774420882 32.753833284700704 99.40240875709256 H 0.0 **** 0.06
29281 C 80.06119268850472 60.14914184719044 64.90006385894708 C 0.0 **** -0.24
29282 H 79.42528428624004 59.52774936623933 64.27032598145388 H 0.0 **** 0.06
29283 H 79.72175993889121 60.083073644761775 65.93519985947307 H 0.0 **** 0.06
29284 H 80.00544528061286 61.18435535324422 64.56433904174588 H 0.0 **** 0.06
29285 H 81.0915447993419 59.80071564486909 64.8326276385227 H 0.0 **** 0.06
29286 C 86.01213399088954 102.07111133058766 9.436886489684596 C 0.0 **** -0.24
29287 H 85.8871470669535 102.08739723684852 8.35429192499041 H 0.0 **** 0.06
29288 H 85.05923223189973 101.83471563759264 9.909571622544508 H 0.0 **** 0.06
29289 H 86.3545883987183 103.04830476480521 9.776911368681446 H 0.0 **** 0.06
29290 H 86.74998126025321 101.31513718240384 9.705375695819008 H 0.0 **** 0.06
29291 C 40.70987033082707 98.52653342902653 3.238701036858629 C 0.0 **** -0.24
29292 H 39.79158972531087 98.53547537673586 3.8251818025917714 H 0.0 **** 0.06
29293 H 41.56535360271624 98.4134267694788 3.9044894489736066 H 0.0 **** 0.06
29294 H 40.79838434634445 99.46301703393743 2.6883568994584834 H 0.0 **** 0.06
29295 H 40.68337879996051 97.69328088159256 2.5360493502125223 H 0.0 **** 0.06
29296 C 106.42960139835614 71.4739583112175 21.10394360633282 C 0.0 **** -0.24
29297 H 106.08639197927454 70.72536346119063 21.817027000877914 H 0.0 **** 0.06
29298 H 105.60030296866967 71.77027324646434 20.460294914295645 H 0.0 **** 0.06
29299 H 107.23078582923503 71.05600867426492 20.49417349299719 H 0.0 **** 0.06
29300 H 106.8003229550203 72.34604231941083 21.64279608000774 H 0.0 **** 0.06
29301 C 106.94541355403592 69.44984553797278 1.4267988092793473 C 0.0 **** -0.24
29302 H 107.06856594469616 68.55221011182735 2.0327015173949547 H 0.0 **** 0.06
29303 H 106.3797515738905 70.19267319493306 1.989765589930414 H 0.0 **** 0.06
29304 H 106.4085023311601 69.19945387563973 0.5119002826483978 H 0.0 **** 0.06
29305 H 107.92642810672501 69.85425121860524 1.1745101965714468 H 0.0 **** 0.06
29306 C 25.0937663484374 30.719523409483685 97.98608774515338 C 0.0 **** -0.24
29307 H 25.223445392768546 31.79797136781127 98.0746783170062 H 0.0 **** 0.06
29308 H 25.514549141340765 30.228819536615134 98.8640800864705 H 0.0 **** 0.06
29309 H 25.60440104842273 30.364344560629746 97.09113124400864 H 0.0 **** 0.06
29310 H 24.030950881975194 30.485624351536927 97.91394510339472 H 0.0 **** 0.06
29311 C 82.1057684972215 5.740146162564713 25.337301769338495 C 0.0 **** -0.24
29312 H 81.02609429649667 5.885758206916307 25.357860776996716 H 0.0 **** 0.06
29313 H 82.58416171872605 6.47627145488002 25.98398290664639 H 0.0 **** 0.06
29314 H 82.4689678526932 5.860966605482076 24.316829525312784 H 0.0 **** 0.06
29315 H 82.34373279019579 4.737078810141668 25.69138629262423 H 0.0 **** 0.06
29316 C 73.74119321977176 55.425876446353726 113.89453088795784 C 0.0 **** -0.24
29317 H 73.89305931394463 55.82344408931965 112.89128236609903 H 0.0 **** 0.06
29318 H 72.9113822592227 54.71878424258597 113.88264032488615 H 0.0 **** 0.06
29319 H 73.51195119289258 56.243900442611135 114.57794352946169 H 0.0 **** 0.06
29320 H 74.64747206309147 54.919087357952094 114.22475716253763 H 0.0 **** 0.06
29321 C 102.2069713765757 48.14465995068515 12.157503060717758 C 0.0 **** -0.24
29322 H 101.84862480152643 48.53497081119306 11.205400608069183 H 0.0 **** 0.06
29323 H 102.11789827885968 47.057680993545546 12.160465226302094 H 0.0 **** 0.06
29324 H 101.6098451314048 48.561114850759935 12.967984064500243 H 0.0 **** 0.06
29325 H 103.25166094763122 48.42422288789311 12.293805041545298 H 0.0 **** 0.06
29326 C 114.71633619962604 69.47152798289136 69.66649834229543 C 0.0 **** -0.24
29327 H 115.1716140084939 69.33833599427453 68.6848354624228 H 0.0 **** 0.06
29328 H 113.65472914193883 69.69014671131961 69.54731644564691 H 0.0 **** 0.06
29329 H 115.20296579632554 70.29888959162986 70.18375303282514 H 0.0 **** 0.06
29330 H 114.83611388097083 68.5581142874112 70.24931195503731 H 0.0 **** 0.06
29331 C 49.20206362551521 28.742321362143883 80.98242112360612 C 0.0 **** -0.24
29332 H 49.19605232260992 28.271680680314212 79.99932592321136 H 0.0 **** 0.06
29333 H 48.2691206358434 29.28841477978849 81.12886713884632 H 0.0 **** 0.06
29334 H 50.04259906720918 29.433352170144467 81.0489386324368 H 0.0 **** 0.06
29335 H 49.29894965357319 27.9757108987216 81.75175623245039 H 0.0 **** 0.06
29336 C 103.39134623188554 10.130808800054083 114.15374639361858 C 0.0 **** -0.24
29337 H 103.55041658167451 9.456872809437058 114.9961316545871 H 0.0 **** 0.06
29338 H 102.42559725811631 10.624558653760715 114.26260859553754 H 0.0 **** 0.06
29339 H 103.40538601215397 9.56100829788852 113.22516727417569 H 0.0 **** 0.06
29340 H 104.18291548015864 10.879665539491185 114.13297004401706 H 0.0 **** 0.06
29341 C 0.20782808694167443 70.98857995083685 78.23187774438003 C 0.0 **** -0.24
29342 H -0.2042735608916928 71.9435084343281 78.55988515031734 H 0.0 **** 0.06
29343 H 0.6797562078920691 70.48782561742664 79.07753544158726 H 0.0 **** 0.06
29344 H 0.9480133125689463 71.16201038377608 77.4516421378392 H 0.0 **** 0.06
29345 H -0.5943220629864072 70.36274505348234 77.839963444027 H 0.0 **** 0.06
29346 C 1.9865713245256238 14.243181536587322 78.72600248649385 C 0.0 **** -0.24
29347 H 1.249934024170516 13.863745232720095 79.43376975877555 H 0.0 **** 0.06
29348 H 2.1303597898018953 13.516146513070531 77.9265214449243 H 0.0 **** 0.06
29349 H 2.933170049185593 14.409102191262534 79.24033716066705 H 0.0 **** 0.06
29350 H 1.6328214349441978 15.183732209296192 78.30338158160885 H 0.0 **** 0.06
29351 C 0.6025250200268601 15.61911111763753 35.910037815057535 C 0.0 **** -0.24
29352 H 0.44056063993468797 14.579708572060795 35.62606457245454 H 0.0 **** 0.06
29353 H 0.4117173458745924 16.26483947772371 35.052479466598925 H 0.0 **** 0.06
29354 H 1.6333811278713597 15.748968507048147 36.24108277810677 H 0.0 **** 0.06
29355 H -0.07549451610458391 15.883543179564768 36.72242642036559 H 0.0 **** 0.06
29356 C 0.6017847033873238 90.98739575195717 49.88131884818324 C 0.0 **** -0.24
29357 H 1.4314437269755729 90.79201634674041 49.20217030963866 H 0.0 **** 0.06
29358 H -0.004037099441944747 91.80475085911223 49.48826207971169 H 0.0 **** 0.06
29359 H 0.9916965199142709 91.26285731417508 50.860698554866104 H 0.0 **** 0.06
29360 H -0.01105895919263844 90.09115106498456 49.97248362144779 H 0.0 **** 0.06
29361 C 55.44908725325064 48.07316534968635 91.87056258617608 C 0.0 **** -0.24
29362 H 55.299359782214424 47.19386882449351 92.49664503999855 H 0.0 **** 0.06
29363 H 56.169177659304694 47.841046875948535 91.08533278647164 H 0.0 **** 0.06
29364 H 55.825843039531264 48.893862453941324 92.47982543901702 H 0.0 **** 0.06
29365 H 54.49939425308247 48.363014272641095 91.41917487683648 H 0.0 **** 0.06
29366 C 96.8543551260984 5.07034663693392 8.097139167136504 C 0.0 **** -0.24
29367 H 96.09596694037086 5.059312366101707 8.87957161371834 H 0.0 **** 0.06
29368 H 97.8445638913121 5.131417207271028 8.552173382952631 H 0.0 **** 0.06
29369 H 96.69783128535889 5.933525442360562 7.4508261193685 H 0.0 **** 0.06
29370 H 96.7804933304713 4.156367932652046 7.5078180924314495 H 0.0 **** 0.06
29371 C 21.746291745705385 102.14606414096028 16.50454945501869 C 0.0 **** -0.24
29372 H 21.10649325346937 101.89835924669711 17.351129692839663 H 0.0 **** 0.06
29373 H 21.17762398534562 102.05116289920119 15.579717754262504 H 0.0 **** 0.06
29374 H 22.59629962474011 101.46422566393647 16.480845975650908 H 0.0 **** 0.06
29375 H 22.105228284411993 103.17035049272533 16.607825922032333 H 0.0 **** 0.06
29376 C 0.160595907121305 67.22028511372838 85.69234708941386 C 0.0 **** -0.24
29377 H -0.2741573717224952 67.82208350251801 86.49039235623565 H 0.0 **** 0.06
29378 H -0.1288181887452282 67.63481382970966 84.72675225605545 H 0.0 **** 0.06
29379 H -0.2034366869034443 66.19549494326839 85.77209919750806 H 0.0 **** 0.06
29380 H 1.2458982348951793 67.22832162154776 85.78170094234085 H 0.0 **** 0.06
29381 C 70.7522149604043 3.0944710789799217 59.634980146335785 C 0.0 **** -0.24
29382 H 69.81685784296724 3.4496416369922827 59.20329176135507 H 0.0 **** 0.06
29383 H 71.11372681584959 2.2396006729734665 59.06193578905009 H 0.0 **** 0.06
29384 H 70.58380614483332 2.793700689292507 60.66844448409858 H 0.0 **** 0.06
29385 H 71.49244801106175 3.892754875050514 59.603982334603224 H 0.0 **** 0.06
29386 C 84.05575566547705 13.180190702901925 17.691131864595356 C 0.0 **** -0.24
29387 H 84.4892292641016 13.384876289274985 16.712096917795023 H 0.0 **** 0.06
29388 H 83.24557447576566 12.457575090261741 17.584980171004474 H 0.0 **** 0.06
29389 H 83.66428456677502 14.104390589430622 18.115724479958807 H 0.0 **** 0.06
29390 H 84.82241563367262 12.773611604530771 18.350461734287002 H 0.0 **** 0.06
29391 C 17.897825317081896 46.64723886389311 109.68904063706745 C 0.0 **** -0.24
29392 H 18.749802337171985 46.941634201184314 109.07576945821936 H 0.0 **** 0.06
29393 H 17.56491189501179 45.65158295897474 109.39420849009295 H 0.0 **** 0.06
29394 H 17.08577017565102 47.35967419450282 109.54865462928008 H 0.0 **** 0.06
29395 H 18.193345948893835 46.63543258283323 110.7390150360721 H 0.0 **** 0.06
29396 C 73.44598444531422 90.05642845140278 60.75889717807514 C 0.0 **** -0.24
29397 H 73.12604551948988 89.79215096644143 61.76689046612501 H 0.0 **** 0.06
29398 H 73.69113909103808 89.14917264752657 60.20600286816566 H 0.0 **** 0.06
29399 H 74.32556527997727 90.69759843217221 60.81338162268316 H 0.0 **** 0.06
29400 H 72.64090720054222 90.58564040018308 60.2500855719478 H 0.0 **** 0.06
29401 C 77.1803258609354 99.30349315743865 16.152042046319604 C 0.0 **** -0.24
29402 H 76.69762168690298 100.25587461218879 16.37152374556033 H 0.0 **** 0.06
29403 H 76.60644623915854 98.49373394582906 16.602902531388327 H 0.0 **** 0.06
29404 H 78.19006251084872 99.30517354347083 16.56159667413078 H 0.0 **** 0.06
29405 H 77.22596426263351 99.15987355123309 15.07241455406465 H 0.0 **** 0.06
29406 C 57.16513513268725 24.652967594244444 95.864292150614 C 0.0 **** -0.24
29407 H 57.019378502373335 24.342265459813063 94.83053247972947 H 0.0 **** 0.06
29408 H 57.4602096984165 25.70191081156196 95.89052360297916 H 0.0 **** 0.06
29409 H 57.94660184175138 24.044193958240555 96.31996797440974 H 0.0 **** 0.06
29410 H 56.234944780528686 24.523806148252845 96.41739085837713 H 0.0 **** 0.06
29411 C 31.04702842534246 18.87680399022379 87.32352451685813 C 0.0 **** -0.24
29412 H 30.966400153485083 19.41791124923786 86.38132872027785 H 0.0 **** 0.06
29413 H 30.065573515859427 18.500419393216987 87.61123068180603 H 0.0 **** 0.06
29414 H 31.420127156524302 19.5480607059728 88.09706813350101 H 0.0 **** 0.06
29415 H 31.73601287550116 18.040824612467418 87.20447053184785 H 0.0 **** 0.06
29416 C 14.517473415737527 50.56583063350962 37.57589963012245 C 0.0 **** -0.24
29417 H 15.520566744949207 50.51826463223841 37.15037137403377 H 0.0 **** 0.06
29418 H 14.225827244598946 51.609419443635545 37.70089550075457 H 0.0 **** 0.06
29419 H 14.511215055008165 50.06700672643154 38.545377605956446 H 0.0 **** 0.06
29420 H 13.815484921910581 50.069001509635285 36.90616539517808 H 0.0 **** 0.06
29421 C 4.143794730481034 63.93735718595255 41.366376201034285 C 0.0 **** -0.24
29422 H 4.688149543378927 63.52229264782255 40.518410868230006 H 0.0 **** 0.06
29423 H 3.801433588192367 64.94327992248222 41.121800428569884 H 0.0 **** 0.06
29424 H 4.8024256981047415 63.97812872344008 42.23500846178925 H 0.0 **** 0.06
29425 H 3.28475405869267 63.30595630164305 41.59184676495525 H 0.0 **** 0.06
29426 C 90.27244739436404 91.80304912218116 73.92480703378845 C 0.0 **** -0.24
29427 H 89.60554490358192 92.59390699570616 73.58111695447667 H 0.0 **** 0.06
29428 H 89.68505253018091 91.00077955665535 74.37015265143035 H 0.0 **** 0.06
29429 H 90.9612669627833 92.20568710499228 74.6676126857609 H 0.0 **** 0.06
29430 H 90.83931010323744 91.41262254558242 73.07878291751967 H 0.0 **** 0.06
29431 C 79.32249038927512 80.45283762958746 92.18830121294863 C 0.0 **** -0.24
29432 H 79.17309522610333 79.64678204098885 91.47093216216479 H 0.0 **** 0.06
29433 H 78.72817838937658 80.25887284429734 93.08230512146852 H 0.0 **** 0.06
29434 H 79.0113107283047 81.39814885088072 91.74328109968704 H 0.0 **** 0.06
29435 H 80.37731785480798 80.50845844802137 92.45872745652312 H 0.0 **** 0.06
29436 C 103.30031616654361 116.67187557338018 64.76831652270096 C 0.0 **** -0.24
29437 H 103.82691164539412 117.20128695165619 63.97376582878852 H 0.0 **** 0.06
29438 H 103.05900762818385 115.66263890209909 64.43518820474506 H 0.0 **** 0.06
29439 H 102.37982470675891 117.20371849741349 65.01030738574934 H 0.0 **** 0.06
29440 H 103.93425120385376 116.62176419771427 65.65313579046702 H 0.0 **** 0.06
29441 C 43.72707238450806 107.06380443935129 17.853024491082152 C 0.0 **** -0.24
29442 H 42.71850324397859 106.70298545723756 18.054454153372177 H 0.0 **** 0.06
29443 H 43.95600100400429 106.93387698819194 16.794893328143843 H 0.0 **** 0.06
29444 H 44.441437952985055 106.49807005404574 18.451994828663118 H 0.0 **** 0.06
29445 H 43.79377032263428 108.12084635351786 18.112386780771544 H 0.0 **** 0.06
29446 C 93.85283033978519 18.42101773923406 72.76773009589837 C 0.0 **** -0.24
29447 H 94.69336047605984 18.270463872637038 72.09134817403401 H 0.0 **** 0.06
29448 H 93.39151011385886 19.387940170566225 72.56299437033275 H 0.0 **** 0.06
29449 H 94.20705672092359 18.39830299710016 73.79768621203968 H 0.0 **** 0.06
29450 H 93.11866870258254 17.629601464936542 72.61820781472653 H 0.0 **** 0.06
29451 C 91.88257995119375 30.61164163095836 92.80754930794026 C 0.0 **** -0.24
29452 H 90.9268865490601 30.719240327080882 93.31822187263734 H 0.0 **** 0.06
29453 H 91.87059339640226 31.195948406268002 91.88746839825464 H 0.0 **** 0.06
29454 H 92.05158568037652 29.561912099627563 92.56989646381328 H 0.0 **** 0.06
29455 H 92.68303091655258 30.971057886087067 93.45516589429201 H 0.0 **** 0.06
29456 C 23.866382626825498 13.869985877843874 12.687912655101599 C 0.0 **** -0.24
29457 H 24.70528437524166 14.151557864538518 12.05216114169334 H 0.0 **** 0.06
29458 H 23.704427035238155 14.64352159073107 13.43927402769203 H 0.0 **** 0.06
29459 H 24.087107064916495 12.923967433621954 13.182652799391064 H 0.0 **** 0.06
29460 H 22.969153583557727 13.761454942705683 12.079682463158928 H 0.0 **** 0.06
29461 C 11.278535089345219 26.15958824569509 88.92626677277897 C 0.0 **** -0.24
29462 H 10.86662469905568 25.80435572260552 87.98134154429499 H 0.0 **** 0.06
29463 H 12.33601762225863 26.391610201319338 88.7964841892391 H 0.0 **** 0.06
29464 H 11.165038823047645 25.386600535930825 89.68564184598287 H 0.0 **** 0.06
29465 H 10.745299076730987 27.057281915407714 89.24004444458637 H 0.0 **** 0.06
29466 C 90.48959217414492 43.18252952228204 115.53044453213471 C 0.0 **** -0.24
29467 H 89.79984113525234 43.894973951157965 115.0769542271339 H 0.0 **** 0.06
29468 H 89.93023574752632 42.328490209063546 115.91155759981649 H 0.0 **** 0.06
29469 H 91.02232604665 43.66415953111098 116.34955321859657 H 0.0 **** 0.06
29470 H 91.20452217121314 42.84373261129457 114.78049071262274 H 0.0 **** 0.06
29471 C 106.83105760591485 19.966461639940036 49.14532365424287 C 0.0 **** -0.24
29472 H 106.43291984447177 20.876039750666052 48.695448164458355 H 0.0 **** 0.06
29473 H 107.08956770798926 19.256286323388025 48.35992279607592 H 0.0 **** 0.06
29474 H 106.07927292722258 19.525776992466575 49.799901983650216 H 0.0 **** 0.06
29475 H 107.72176006052558 20.207816307648557 49.72532108617651 H 0.0 **** 0.06
29476 C 53.05681150783053 109.63833733987558 21.58317742041776 C 0.0 **** -0.24
29477 H 53.39449095304999 110.66962504748541 21.691150971419688 H 0.0 **** 0.06
29478 H 53.09656768507825 109.14006501407636 22.55148215771464 H 0.0 **** 0.06
29479 H 53.705077663106486 109.11612722436983 20.8789007687222 H 0.0 **** 0.06
29480 H 52.033007386912914 109.62899227937847 21.2096700740246 H 0.0 **** 0.06
29481 C 36.16037810013906 100.9435054006752 72.47867396514684 C 0.0 **** -0.24
29482 H 37.24679318748014 100.96336985148045 72.57530594100342 H 0.0 **** 0.06
29483 H 35.70819916000212 101.34781204370563 73.38416846823077 H 0.0 **** 0.06
29484 H 35.82812115082309 99.91621134900595 72.33273509499895 H 0.0 **** 0.06
29485 H 35.86198181200791 101.54751781501571 71.62187607978106 H 0.0 **** 0.06
29486 C 4.561570207499528 26.911267339341066 85.5256070991727 C 0.0 **** -0.24
29487 H 4.90720135887949 25.91764833243306 85.81073047187957 H 0.0 **** 0.06
29488 H 4.6584289966484675 27.58779632178343 86.37479605430863 H 0.0 **** 0.06
29489 H 3.5156432592840474 26.858008916413652 85.22131217695306 H 0.0 **** 0.06
29490 H 5.163758942881145 27.280426783815955 84.69542157911727 H 0.0 **** 0.06
29491 C 110.71079212412327 115.07247812494352 52.125350932915296 C 0.0 **** -0.24
29492 H 109.77524204395782 114.83196872040257 51.621498600251925 H 0.0 **** 0.06
29493 H 111.25700340556226 114.15311938985067 52.336828422015515 H 0.0 **** 0.06
29494 H 110.49601002294554 115.59138510802393 53.06041523675407 H 0.0 **** 0.06
29495 H 111.3135009639212 115.71519646065323 51.484641101422824 H 0.0 **** 0.06
29496 C 113.11136214455908 41.518213190171764 90.11890994993672 C 0.0 **** -0.24
29497 H 114.09967686337399 41.33308820475506 89.69798391342636 H 0.0 **** 0.06
29498 H 113.07976023086343 42.52306658702409 90.54158950908953 H 0.0 **** 0.06
29499 H 112.90804746357114 40.78787595552777 90.90189246020134 H 0.0 **** 0.06
29500 H 112.3600921684313 41.43002593592118 89.33432192003437 H 0.0 **** 0.06
29501 C 5.330761993646931 102.66523335926303 81.24774393447078 C 0.0 **** -0.24
29502 H 5.915894455368068 101.801324314259 81.56030757841643 H 0.0 **** 0.06
29503 H 4.318480034891984 102.58060566467793 81.64248730824775 H 0.0 **** 0.06
29504 H 5.29458812062915 102.70373412902455 80.15822100749114 H 0.0 **** 0.06
29505 H 5.794477157073814 103.57543260881104 81.62776436475207 H 0.0 **** 0.06
29506 C 111.09867075299488 12.90555530198975 77.96505454436473 C 0.0 **** -0.24
29507 H 110.39559169398095 12.840725639832783 77.13470888692359 H 0.0 **** 0.06
29508 H 111.90316178919443 12.184978972804515 77.81585023364875 H 0.0 **** 0.06
29509 H 110.58109233941946 12.685277209343411 78.89809744142619 H 0.0 **** 0.06
29510 H 111.51588881368659 13.911362660445974 78.00959205206163 H 0.0 **** 0.06
29511 C 102.8798242341033 88.49277609728696 110.34652769459467 C 0.0 **** -0.24
29512 H 102.92850424240103 89.40357448302666 110.9436730253343 H 0.0 **** 0.06
29513 H 102.45918430296683 88.72415867211294 109.36746785385532 H 0.0 **** 0.06
29514 H 102.24805429466255 87.76104311804843 110.85140949807754 H 0.0 **** 0.06
29515 H 103.88258393849398 88.08392189429861 110.22514754085884 H 0.0 **** 0.06
29516 C 53.8093166347019 41.9413328642371 52.81051257981121 C 0.0 **** -0.24
29517 H 54.28652999181251 42.90789061365672 52.97571718398891 H 0.0 **** 0.06
29518 H 52.94035620011908 42.070754498552134 52.16522212034842 H 0.0 **** 0.06
29519 H 53.49394856800431 41.52464580504561 53.76691460006405 H 0.0 **** 0.06
29520 H 54.51840070893554 41.26349054580601 52.33434182796998 H 0.0 **** 0.06
29521 C 110.18039498280788 25.881572854339588 40.363936306034475 C 0.0 **** -0.24
29522 H 111.2157452355575 25.5691603508805 40.499295952254954 H 0.0 **** 0.06
29523 H 109.51583687807081 25.124419953123194 40.7807624176956 H 0.0 **** 0.06
29524 H 109.97326640828084 26.002608596815662 39.301091531375164 H 0.0 **** 0.06
29525 H 110.01846652751544 26.830094135876898 40.87632438120363 H 0.0 **** 0.06
29526 C 95.29769475549787 112.5974168892821 11.086547017239866 C 0.0 **** -0.24
29527 H 95.3574849994796 112.1119406958469 10.112708771033823 H 0.0 **** 0.06
29528 H 95.02234775256824 113.64415722414505 10.954794569684282 H 0.0 **** 0.06
29529 H 96.26558767127878 112.53492794329149 11.583273665539934 H 0.0 **** 0.06
29530 H 94.5436602164396 112.09729683895074 11.694856848500592 H 0.0 **** 0.06
29531 C 16.79108745913601 29.124512119961878 97.94612679880643 C 0.0 **** -0.24
29532 H 17.701819584584996 29.58776111113511 98.32644162390113 H 0.0 **** 0.06
29533 H 17.052614201821058 28.33441877062336 97.24095353458966 H 0.0 **** 0.06
29534 H 16.184619052596645 29.876009914090815 97.44262209716254 H 0.0 **** 0.06
29535 H 16.22767088827291 28.698778783335285 98.77717308512436 H 0.0 **** 0.06
29536 C 42.30484432366251 12.75081316206439 8.123914649878145 C 0.0 **** -0.24
29537 H 41.634056848751584 13.57901541095859 7.894698197928562 H 0.0 **** 0.06
29538 H 42.583378826054116 12.79112060050204 9.177386936812553 H 0.0 **** 0.06
29539 H 43.20044188716045 12.828107907015806 7.50732280693299 H 0.0 **** 0.06
29540 H 41.80145656387731 11.806508531812653 7.917908674898285 H 0.0 **** 0.06
29541 C 90.60236326533052 40.03672669413447 36.05822228132266 C 0.0 **** -0.24
29542 H 91.64611783634248 39.84091279834263 36.30508927840273 H 0.0 **** 0.06
29543 H 90.10455927254353 39.098548164926996 35.81311374361701 H 0.0 **** 0.06
29544 H 90.55190050296946 40.71023469897273 35.20243348298641 H 0.0 **** 0.06
29545 H 90.10775987204696 40.4979810623409 36.91352743433225 H 0.0 **** 0.06
29546 C 47.10646824232026 15.765487287336825 51.82979386036058 C 0.0 **** -0.24
29547 H 46.16944759101247 15.65325156488214 52.37642123121836 H 0.0 **** 0.06
29548 H 47.53566839047019 14.782073544341628 51.63906477390677 H 0.0 **** 0.06
29549 H 47.80267750889837 16.358034764899713 52.42286980633153 H 0.0 **** 0.06
29550 H 46.91538231728754 16.269590070177657 50.881670659448574 H 0.0 **** 0.06
29551 C 27.177991926173547 4.254273016256803 69.1365693975651 C 0.0 **** -0.24
29552 H 27.24399881864747 4.259854278783891 68.04887326891932 H 0.0 **** 0.06
29553 H 26.40428103065841 4.95288538697821 69.45736568452119 H 0.0 **** 0.06
29554 H 28.136183235183182 4.553497030795683 69.55993602381452 H 0.0 **** 0.06
29555 H 26.925393005254307 3.2511792338851677 69.47944194384306 H 0.0 **** 0.06
29556 C 56.01783338816145 74.14960056126543 57.72670919563054 C 0.0 **** -0.24
29557 H 55.19252024241064 74.00049916363372 58.42280253656869 H 0.0 **** 0.06
29558 H 55.65054391938514 74.65061852862536 56.83083898678843 H 0.0 **** 0.06
29559 H 56.442788092786884 73.18326306516852 57.45512990575977 H 0.0 **** 0.06
29560 H 56.78443935525348 74.76459797698624 58.198828328705154 H 0.0 **** 0.06
29561 C 5.373098202769285 25.216293398030075 98.3196556570062 C 0.0 **** -0.24
29562 H 6.352648729009985 25.579642862076696 98.63143753008549 H 0.0 **** 0.06
29563 H 5.442741505690435 24.157950117927726 98.0652674356595 H 0.0 **** 0.06
29564 H 5.0387278817272545 25.77808914903332 97.44706638932803 H 0.0 **** 0.06
29565 H 4.660789728067812 25.3490745803349 99.13362600560194 H 0.0 **** 0.06
29566 C 73.52648104950731 0.5072451702558229 107.27263219709849 C 0.0 **** -0.24
29567 H 73.6816430052329 1.0747949528207492 108.19058155227754 H 0.0 **** 0.06
29568 H 72.53288755436722 0.05746205212872724 107.28649482760355 H 0.0 **** 0.06
29569 H 74.27952019801103 -0.2771666919616731 107.19895032083335 H 0.0 **** 0.06
29570 H 73.6107464688464 1.1748167146050452 106.41543589240237 H 0.0 **** 0.06
29571 C 53.42399117551332 13.73550376113273 41.10289661344719 C 0.0 **** -0.24
29572 H 53.32436403991784 13.330472616856063 40.096122487646234 H 0.0 **** 0.06
29573 H 53.455944003517004 12.916064374237063 41.82234306003438 H 0.0 **** 0.06
29574 H 52.5712191750074 14.378424232214812 41.32277657024025 H 0.0 **** 0.06
29575 H 54.344065869376664 14.316023255578692 41.17123873701638 H 0.0 **** 0.06
29576 C 7.899726761927326 25.023698920389137 41.23768461421963 C 0.0 **** -0.24
29577 H 6.8940679944987835 25.44084219117815 41.30162973485517 H 0.0 **** 0.06
29578 H 7.875629882853673 24.105800452830067 40.65057074740503 H 0.0 **** 0.06
29579 H 8.264793722537917 24.804172689306625 42.2416514411633 H 0.0 **** 0.06
29580 H 8.561935506465119 25.74497118543829 40.760028048914364 H 0.0 **** 0.06
29581 C 65.03532473501284 1.282708847851893 76.51768409421129 C 0.0 **** -0.24
29582 H 64.65361514671613 1.786768651756688 77.40452250264082 H 0.0 **** 0.06
29583 H 65.0059524543413 0.20319059344475932 76.67222758034984 H 0.0 **** 0.06
29584 H 66.06294173032384 1.5961288730120202 76.33468097459411 H 0.0 **** 0.06
29585 H 64.41808355578456 1.5431536602305016 75.65758420469592 H 0.0 **** 0.06
29586 C 62.631934368151576 20.911867083335892 93.28561120940955 C 0.0 **** -0.24
29587 H 62.991453501233934 21.567777196060888 94.07924459660538 H 0.0 **** 0.06
29588 H 62.021489421397575 21.486087651817087 92.58824709717217 H 0.0 **** 0.06
29589 H 62.033160523334004 20.110657688743316 93.71943996275533 H 0.0 **** 0.06
29590 H 63.48323465821977 20.48360457258329 92.75692890818507 H 0.0 **** 0.06
29591 C 77.15117471607505 95.45789643301282 116.18670697511688 C 0.0 **** -0.24
29592 H 77.44943332297541 94.4180424794186 116.05023511371007 H 0.0 **** 0.06
29593 H 77.12924793189251 95.69156901129224 117.25129061491145 H 0.0 **** 0.06
29594 H 76.15986396550278 95.61027041544742 115.76122247038587 H 0.0 **** 0.06
29595 H 77.86674671855874 96.10962291736655 115.68590138930045 H 0.0 **** 0.06
29596 C 30.86773529685656 42.46995145783808 85.8436384556513 C 0.0 **** -0.24
29597 H 30.789445584042596 43.54394352849252 86.01544292738652 H 0.0 **** 0.06
29598 H 30.37851922322453 42.21639534144103 84.90234573575262 H 0.0 **** 0.06
29599 H 30.382137088745203 41.93555113814938 86.66051707417043 H 0.0 **** 0.06
29600 H 31.918287926117003 42.18513631054563 85.79621053094027 H 0.0 **** 0.06
29601 C 87.51736623206781 107.2131657734333 101.98458963602033 C 0.0 **** -0.24
29602 H 86.68838163239539 106.72892402910287 101.46774877651055 H 0.0 **** 0.06
29603 H 87.77725331346343 108.13750465152052 101.46804017350169 H 0.0 **** 0.06
29604 H 88.37896578945663 106.54579904032778 101.99276238996606 H 0.0 **** 0.06
29605 H 87.22286470787668 107.43920161830724 103.00911419788812 H 0.0 **** 0.06
29606 C 77.32288036057423 104.98921429549421 101.96749447744938 C 0.0 **** -0.24
29607 H 77.55208243047704 105.4693868181154 102.91902521715343 H 0.0 **** 0.06
29608 H 77.06944109738009 105.75004707181475 101.2290000542666 H 0.0 **** 0.06
29609 H 76.47829256076793 104.31253789874091 102.09703389932463 H 0.0 **** 0.06
29610 H 78.19178080747687 104.42682666955253 101.62641075163859 H 0.0 **** 0.06
29611 C 64.5976875029738 71.79469433581198 84.4207420360537 C 0.0 **** -0.24
29612 H 64.89901151033158 71.93581579961264 83.3821556823635 H 0.0 **** 0.06
29613 H 64.18243651134208 70.79514046034615 84.54515090377575 H 0.0 **** 0.06
29614 H 63.844656486205885 72.53793733848732 84.683612953043 H 0.0 **** 0.06
29615 H 65.46630896829791 71.9119757703852 85.07008469207929 H 0.0 **** 0.06
29616 C 68.19039748205628 84.34031801862446 72.24084658351154 C 0.0 **** -0.24
29617 H 69.15169996387272 84.85266671683141 72.27634730644544 H 0.0 **** 0.06
29618 H 67.96805662978753 83.91630762837997 73.22048822563966 H 0.0 **** 0.06
29619 H 68.23164738889324 83.5410342333536 71.50047784034061 H 0.0 **** 0.06
29620 H 67.41047636633147 85.05012884191353 71.96686563570029 H 0.0 **** 0.06
29621 C 81.16570502914948 19.300901641154468 83.61936309015974 C 0.0 **** -0.24
29622 H 81.32425247254486 20.317293811528884 83.25927474677232 H 0.0 **** 0.06
29623 H 80.5829817478351 18.74269560645172 82.88581375138784 H 0.0 **** 0.06
29624 H 80.62727147299512 19.33083124092201 84.56555565668074 H 0.0 **** 0.06
29625 H 82.13019069512762 18.81304752658849 83.76374032168897 H 0.0 **** 0.06
29626 C 37.96061114434582 99.22903701456903 69.74782638851974 C 0.0 **** -0.24
29627 H 38.75708308413218 99.97150155111032 69.70693898954173 H 0.0 **** 0.06
29628 H 36.99864271264549 99.71812743602811 69.59116330633762 H 0.0 **** 0.06
29629 H 37.967487625585136 98.74295112640598 70.72280491104482 H 0.0 **** 0.06
29630 H 38.119786777503506 98.48255662724978 68.96848293313778 H 0.0 **** 0.06
29631 C 76.44159153115265 94.22925272756322 79.48234960451597 C 0.0 **** -0.24
29632 H 77.33050306771278 94.77173538077702 79.80363108776001 H 0.0 **** 0.06
29633 H 75.63787903969597 94.93702683662855 79.27900503174158 H 0.0 **** 0.06
29634 H 76.13104472404964 93.54151671625675 80.26856509205328 H 0.0 **** 0.06
29635 H 76.66841394438444 93.66623844969911 78.57583451750071 H 0.0 **** 0.06
29636 C 100.12011857655523 4.452392295945742 7.552010988941092 C 0.0 **** -0.24
29637 H 100.73866083454908 4.044077095884006 6.7531173129727335 H 0.0 **** 0.06
29638 H 99.53371113417029 5.287121058941381 7.166908121884575 H 0.0 **** 0.06
29639 H 100.75934958615176 4.80086072514645 8.364050713343516 H 0.0 **** 0.06
29640 H 99.45009601313882 3.6770679250507214 7.9239758634692095 H 0.0 **** 0.06
29641 C 23.046866931832174 13.271682833760252 91.8118993166276 C 0.0 **** -0.24
29642 H 23.244105165569945 13.660623537122973 90.81347450151299 H 0.0 **** 0.06
29643 H 23.526207669435262 12.298676451223002 91.92339842319876 H 0.0 **** 0.06
29644 H 21.97132592107842 13.16460981249466 91.95364867893394 H 0.0 **** 0.06
29645 H 23.44508640324997 13.960969054518984 92.55606709851213 H 0.0 **** 0.06
29646 C 80.34467933516208 19.900477243157084 25.922522871471443 C 0.0 **** -0.24
29647 H 79.38789110848748 20.262396213283694 25.547345765973887 H 0.0 **** 0.06
29648 H 80.99956017294988 19.667032662162455 25.083062521810803 H 0.0 **** 0.06
29649 H 80.18422607719387 19.002636252914996 26.5194544242149 H 0.0 **** 0.06
29650 H 80.80676945026431 20.670341931468528 26.541052654800097 H 0.0 **** 0.06
29651 C 85.8166351598727 72.0038354576086 19.69538927115626 C 0.0 **** -0.24
29652 H 86.19757467208265 71.53317158850655 20.601825471407093 H 0.0 **** 0.06
29653 H 84.8090604435298 71.64157687696004 19.493669612976117 H 0.0 **** 0.06
29654 H 86.46748618980891 71.75497277061316 18.857040727566226 H 0.0 **** 0.06
29655 H 85.7941622770177 73.08505128831209 19.83030124562773 H 0.0 **** 0.06
29656 C 12.750063362760727 5.555905920171654 110.62793978411236 C 0.0 **** -0.24
29657 H 13.40871101969256 6.3290539176795875 111.02406656406443 H 0.0 **** 0.06
29658 H 13.179015421047126 4.574242481250906 110.82978132368578 H 0.0 **** 0.06
29659 H 12.637878878571769 5.689969392920631 109.55251171394967 H 0.0 **** 0.06
29660 H 11.773605684845023 5.631128656603821 111.10722148748934 H 0.0 **** 0.06
29661 C 87.97071636602871 59.6104969579888 21.9279369151416 C 0.0 **** -0.24
29662 H 87.96516133572683 58.67559735440608 22.489013454463844 H 0.0 **** 0.06
29663 H 87.14720836876035 59.61019226960951 21.213170865146395 H 0.0 **** 0.06
29664 H 88.91588668928662 59.706408753532855 21.393613090462622 H 0.0 **** 0.06
29665 H 87.85546220047141 60.44759445910756 22.615276074762292 H 0.0 **** 0.06
29666 C 14.081490526471043 87.45518297601544 11.083905515947226 C 0.0 **** -0.24
29667 H 13.716748373090923 87.40912867673535 12.110273947183853 H 0.0 **** 0.06
29668 H 14.358632600295323 86.4551858489167 10.75257351661967 H 0.0 **** 0.06
29669 H 14.9532435900108 88.10910621043905 11.037807171604385 H 0.0 **** 0.06
29670 H 13.29711401854712 87.84940834951925 10.43805816927891 H 0.0 **** 0.06
29671 C 75.96744728971078 13.114911491524992 71.73278838200358 C 0.0 **** -0.24
29672 H 77.05081091020634 13.091256689358005 71.85313669832854 H 0.0 **** 0.06
29673 H 75.50051701287967 12.551498111283422 72.54124091620264 H 0.0 **** 0.06
29674 H 75.69841021735215 12.668575904401933 70.77515139687159 H 0.0 **** 0.06
29675 H 75.62136410821563 14.14773861724862 71.76259583078169 H 0.0 **** 0.06
29676 C 100.0901705183496 17.388164775656314 72.73602992792817 C 0.0 **** -0.24
29677 H 101.13521193686972 17.17619046248443 72.96449952243213 H 0.0 **** 0.06
29678 H 99.94461761674037 17.372493921792223 71.65553615718034 H 0.0 **** 0.06
29679 H 99.82578451853618 18.37136179347793 73.12482500423954 H 0.0 **** 0.06
29680 H 99.45714707022671 16.631845706704144 73.19896046675439 H 0.0 **** 0.06
29681 C 89.88129870860996 39.40779167387578 11.087409317598635 C 0.0 **** -0.24
29682 H 89.56074798378762 38.89668112059704 10.179000674023996 H 0.0 **** 0.06
29683 H 89.63270315450774 38.79666806746107 11.9547812819924 H 0.0 **** 0.06
29684 H 89.37266439704013 40.36948272571436 11.161338179860795 H 0.0 **** 0.06
29685 H 90.95943281598511 39.568931140448655 11.052167723869289 H 0.0 **** 0.06
29686 C 96.9377192318909 27.811778410205378 75.50348909485518 C 0.0 **** -0.24
29687 H 96.7388643205444 27.792037404642656 74.4317069276265 H 0.0 **** 0.06
29688 H 97.5370911421974 26.944213866120535 75.77780093503088 H 0.0 **** 0.06
29689 H 95.99299797991122 27.787802084383024 76.04806778184738 H 0.0 **** 0.06
29690 H 97.47864181298027 28.723141137444287 75.75590667702451 H 0.0 **** 0.06
29691 C 70.98302125209409 19.208937979460245 27.803833727152735 C 0.0 **** -0.24
29692 H 71.68829528502849 19.810726650415234 27.230393306330463 H 0.0 **** 0.06
29693 H 71.41323711196245 18.975088952505786 28.7777140679838 H 0.0 **** 0.06
29694 H 70.77440375404782 18.28363047792911 27.2661909354848 H 0.0 **** 0.06
29695 H 70.05591226979058 19.766621102325956 27.938835479925608 H 0.0 **** 0.06
29696 C 107.0323588725737 112.78533530498262 19.19683379367271 C 0.0 **** -0.24
29697 H 107.01578134682711 112.31509649393402 18.213769403711353 H 0.0 **** 0.06
29698 H 107.72659053795087 113.62620718653628 19.185133355073233 H 0.0 **** 0.06
29699 H 107.35325434620742 112.05762957737534 19.942498906192867 H 0.0 **** 0.06
29700 H 106.03233964043187 113.14294570703277 19.444048994118774 H 0.0 **** 0.06
29701 C 110.62521707429772 10.89518282592115 55.30838605174387 C 0.0 **** -0.24
29702 H 109.85503167468397 11.577404815959888 54.947241169306494 H 0.0 **** 0.06
29703 H 110.23771434955529 10.325787188094363 56.15387128271914 H 0.0 **** 0.06
29704 H 111.49803281246017 11.46638551878377 55.622963664459746 H 0.0 **** 0.06
29705 H 110.90765288206319 10.211280979608592 54.50803722696156 H 0.0 **** 0.06
29706 C 31.346622397439177 5.234773067169442 114.50190036819882 C 0.0 **** -0.24
29707 H 30.38074053015046 4.754029469985028 114.65603913678999 H 0.0 **** 0.06
29708 H 31.868614766995677 5.3149754832397775 115.45653884852152 H 0.0 **** 0.06
29709 H 31.19495028287963 6.23096653614914 114.08630909250294 H 0.0 **** 0.06
29710 H 31.943335145343553 4.639971572724505 113.81043233782205 H 0.0 **** 0.06
29711 C 18.322147437567587 76.16154360332152 1.7483757739251757 C 0.0 **** -0.24
29712 H 19.181047956391737 76.77357879717127 1.4763598179370092 H 0.0 **** 0.06
29713 H 17.935958840732752 76.48588878517745 2.7154112526037295 H 0.0 **** 0.06
29714 H 18.624614319180253 75.11657051777601 1.8107533129320075 H 0.0 **** 0.06
29715 H 17.544742460591095 76.26957449185733 0.9918324435838599 H 0.0 **** 0.06
29716 C 54.37084255283985 51.15025600635778 7.235101573014163 C 0.0 **** -0.24
29717 H 53.61585068380151 50.43473727454216 7.564504556826989 H 0.0 **** 0.06
29718 H 54.11421794419792 52.14348876041021 7.604746705787193 H 0.0 **** 0.06
29719 H 54.40663419315586 51.16479831950818 6.1462520031102486 H 0.0 **** 0.06
29720 H 55.344326707681816 50.85656875462206 7.627447529511812 H 0.0 **** 0.06
29721 C 25.71187133347175 48.198790536042935 58.989373852058606 C 0.0 **** -0.24
29722 H 25.148948159803524 47.67442861088145 59.76163096211104 H 0.0 **** 0.06
29723 H 25.866620542684473 49.23451083223813 59.29408879683157 H 0.0 **** 0.06
29724 H 25.15381956049464 48.174735018956284 58.05351836107761 H 0.0 **** 0.06
29725 H 26.677560351926928 47.71278005898324 58.85026777149406 H 0.0 **** 0.06
29726 C 41.72138298238439 67.10910867506686 12.711189980168637 C 0.0 **** -0.24
29727 H 41.79476848272322 67.25828721504809 13.787988587458742 H 0.0 **** 0.06
29728 H 41.57032404733913 68.07095192338639 12.220621168416873 H 0.0 **** 0.06
29729 H 40.878396911713324 66.45336708730738 12.492623201048879 H 0.0 **** 0.06
29730 H 42.640820448979596 66.65313480635126 12.34368684426341 H 0.0 **** 0.06
29731 C 56.13456842049613 17.773240405845176 24.523553341751267 C 0.0 **** -0.24
29732 H 55.96267370937358 16.85320262799889 23.965631650144303 H 0.0 **** 0.06
29733 H 55.94965687743319 17.59606913140538 25.58319056460408 H 0.0 **** 0.06
29734 H 55.46010506610141 18.548822478923945 24.16074403337103 H 0.0 **** 0.06
29735 H 57.16607304490574 18.095194274049014 24.382447527697877 H 0.0 **** 0.06
29736 C 85.56118565150672 56.84439230773344 77.68750405427855 C 0.0 **** -0.24
29737 H 85.73010691321764 57.54283607694168 76.86658262095258 H 0.0 **** 0.06
29738 H 86.26095878958398 57.05878942855816 78.49528273568205 H 0.0 **** 0.06
29739 H 85.71511416975608 55.82531991063573 77.33368576100153 H 0.0 **** 0.06
29740 H 84.53994339941116 56.95320639342194 78.05139506786517 H 0.0 **** 0.06
29741 C 110.74539207252286 82.1828182419788 55.984850839158476 C 0.0 **** -0.24
29742 H 110.49093820232173 83.22444401146072 55.787290752623655 H 0.0 **** 0.06
29743 H 111.47338757002456 81.84168307420657 55.2484899590161 H 0.0 **** 0.06
29744 H 109.84614327033506 81.57129855359835 55.91739587077479 H 0.0 **** 0.06
29745 H 111.17022213735692 82.09672132262517 56.98482268193872 H 0.0 **** 0.06
29746 C 41.35926831784466 50.42463944998795 62.44056429870781 C 0.0 **** -0.24
29747 H 40.31418250770333 50.60150870803504 62.69356992164987 H 0.0 **** 0.06
29748 H 41.68908309107638 51.1710038252498 61.71846918654629 H 0.0 **** 0.06
29749 H 41.466239723356914 49.4293954093765 62.010085106706924 H 0.0 **** 0.06
29750 H 41.9674365318955 50.49687488930749 63.34235387621604 H 0.0 **** 0.06
29751 C 61.422877007894954 26.937308375305577 97.09207418002148 C 0.0 **** -0.24
29752 H 61.49672496301184 27.215978384463625 98.14380443880202 H 0.0 **** 0.06
29753 H 61.92644347235944 27.688021369651366 96.48153025337731 H 0.0 **** 0.06
29754 H 60.373286292974456 26.87988324428818 96.80502608962121 H 0.0 **** 0.06
29755 H 61.895988537951496 25.967181215903736 96.93926791948843 H 0.0 **** 0.06
29756 C 61.508229522341885 97.80986138727334 26.225014248685852 C 0.0 **** -0.24
29757 H 62.30019875185629 97.94018608445418 25.48699106266764 H 0.0 **** 0.06
29758 H 61.32792426004108 98.75666167977116 26.73420987972321 H 0.0 **** 0.06
29759 H 61.81041579906229 97.05728910752353 26.95275894035757 H 0.0 **** 0.06
29760 H 60.59518280299219 97.48622950405397 25.723974195436824 H 0.0 **** 0.06
29761 C 97.37719176881325 26.984293032743153 27.030237024517902 C 0.0 **** -0.24
29762 H 98.44527892071187 26.888906600123903 27.222474268053475 H 0.0 **** 0.06
29763 H 96.83088264888787 26.904209458568573 27.969591527702974 H 0.0 **** 0.06
29764 H 97.0569200909004 26.192203261929194 26.35387708019013 H 0.0 **** 0.06
29765 H 97.17640091612793 27.95389824995192 26.574453384405103 H 0.0 **** 0.06
29766 C 74.87771848405993 99.92978468678177 23.65709559881327 C 0.0 **** -0.24
29767 H 75.75853855542474 99.53601980332064 24.16437874575206 H 0.0 **** 0.06
29768 H 74.12743863190272 99.14497168746988 23.57123783429296 H 0.0 **** 0.06
29769 H 75.15782989080563 100.27691477885406 22.661529236870734 H 0.0 **** 0.06
29770 H 74.47046736430727 100.76342695298996 24.229963047919796 H 0.0 **** 0.06
29771 C 20.029899408430772 30.869429457128916 67.79596913897092 C 0.0 **** -0.24
29772 H 20.7274012592043 31.696592088090455 67.66541993399176 H 0.0 **** 0.06
29773 H 19.627435655300545 30.577932135796402 66.82550005528049 H 0.0 **** 0.06
29774 H 19.215453988948944 31.18067173544864 68.44936091330226 H 0.0 **** 0.06
29775 H 20.55027874576202 30.0217861383868 68.24287871385422 H 0.0 **** 0.06
29776 C 75.59837055821299 28.349150984962954 35.91512394527055 C 0.0 **** -0.24
29777 H 76.4786976008447 28.914263713972588 36.22168369257824 H 0.0 **** 0.06
29778 H 75.8609347846438 27.296543918768272 35.808698549251545 H 0.0 **** 0.06
29779 H 75.23522251909654 28.732436855243307 34.96191128916132 H 0.0 **** 0.06
29780 H 74.81886655092592 28.455695739092995 36.66977863802512 H 0.0 **** 0.06
29781 C 49.85422169255543 69.55060911278736 105.82245328616915 C 0.0 **** -0.24
29782 H 49.21325725865921 69.72346963915948 104.95771180982865 H 0.0 **** 0.06
29783 H 50.29345408664801 70.49532287859267 106.14298530127806 H 0.0 **** 0.06
29784 H 50.64707364990676 68.85273738920353 105.55391134123195 H 0.0 **** 0.06
29785 H 49.26067874133196 69.13097367740386 106.63485149375651 H 0.0 **** 0.06
29786 C 61.12262433063643 59.29037778533004 57.50521135794014 C 0.0 **** -0.24
29787 H 60.256823905763156 59.95058277448513 57.552433589273335 H 0.0 **** 0.06
29788 H 61.08585873874483 58.5831593529544 58.33406862509963 H 0.0 **** 0.06
29789 H 62.03602760786288 59.88257630372826 57.57254200894124 H 0.0 **** 0.06
29790 H 61.112365187591706 58.744385603126204 56.5616811395052 H 0.0 **** 0.06
29791 C 107.88761890519126 58.663189462323494 79.97226629289867 C 0.0 **** -0.24
29792 H 107.27286565586277 57.76327241150475 79.93718408037796 H 0.0 **** 0.06
29793 H 108.40601814055825 58.71195142113955 80.92912332897117 H 0.0 **** 0.06
29794 H 107.25284592117379 59.54199927058473 79.85755987516669 H 0.0 **** 0.06
29795 H 108.61809006415004 58.63572323083522 79.16395915192956 H 0.0 **** 0.06
29796 C 116.07586046096498 91.84552960985673 45.43476658772437 C 0.0 **** -0.24
29797 H 116.66926740731672 92.50746268626747 44.80436295507883 H 0.0 **** 0.06
29798 H 115.6165308514224 91.07211545492726 44.81929618910141 H 0.0 **** 0.06
29799 H 115.2981805116303 92.42244491619783 45.93536582627178 H 0.0 **** 0.06
29800 H 116.72105066754928 91.38110214765302 46.1807241690604 H 0.0 **** 0.06
29801 C 25.2729042976639 1.58836120681012 100.1973438372433 C 0.0 **** -0.24
29802 H 25.11772866956433 0.6618958447947705 100.74974712436102 H 0.0 **** 0.06
29803 H 26.193592952174257 1.5163812292875036 99.61862263485801 H 0.0 **** 0.06
29804 H 25.347926180462743 2.42035942588042 100.89752998840225 H 0.0 **** 0.06
29805 H 24.432369388454212 1.7548083272774164 99.523475601352 H 0.0 **** 0.06
29806 C 0.09425524537252272 36.29043210815636 105.65101424412975 C 0.0 **** -0.24
29807 H -0.2699936918920969 35.6758636834705 106.47432908981023 H 0.0 **** 0.06
29808 H -0.5468984532012371 37.16544004967618 105.54046085921772 H 0.0 **** 0.06
29809 H 0.07888485899049158 35.70964082945138 104.72928589418711 H 0.0 **** 0.06
29810 H 1.1140122651716098 36.611509996085324 105.86154341120113 H 0.0 **** 0.06
29811 C 12.169137115062199 38.944630470545455 73.72866718843864 C 0.0 **** -0.24
29812 H 11.280193420896495 39.071783624918965 73.11142322758374 H 0.0 **** 0.06
29813 H 11.97110329915904 38.200568165804064 74.5002907159448 H 0.0 **** 0.06
29814 H 12.425025808528574 39.895118635318966 74.19736988599624 H 0.0 **** 0.06
29815 H 12.998918221264233 38.61148770637262 73.1059006699229 H 0.0 **** 0.06
29816 C 8.139652914341355 56.854885940784044 30.459398696548106 C 0.0 **** -0.24
29817 H 8.766006337974503 57.29289821764897 29.682151882501216 H 0.0 **** 0.06
29818 H 7.113921350213175 57.20375232486367 30.33706713864308 H 0.0 **** 0.06
29819 H 8.51201749720255 57.157551161963084 31.438586831083995 H 0.0 **** 0.06
29820 H 8.166617054009777 55.76862940814232 30.379351292788215 H 0.0 **** 0.06
29821 C 26.272690780920527 103.37369589641838 31.401531059811973 C 0.0 **** -0.24
29822 H 26.131588579937798 104.45352030109913 31.34119471541152 H 0.0 **** 0.06
29823 H 26.875130347103934 103.03835637192535 30.55689328057352 H 0.0 **** 0.06
29824 H 25.302041124244255 102.87912526028953 31.374753104387636 H 0.0 **** 0.06
29825 H 26.78154693435198 103.12595244992426 32.33224394480422 H 0.0 **** 0.06
29826 C 111.23875039580646 72.25914755065179 42.91063995618978 C 0.0 **** -0.24
29827 H 111.5878933288108 71.42433264023609 43.51752148172565 H 0.0 **** 0.06
29828 H 112.0679152465933 72.65219675286824 42.32232631462065 H 0.0 **** 0.06
29829 H 110.84920653809056 73.04319678791222 43.559694900919936 H 0.0 **** 0.06
29830 H 110.44928165783492 71.91613410201737 42.241024453947944 H 0.0 **** 0.06
29831 C 44.85563208239074 91.24525485143465 106.4807380195794 C 0.0 **** -0.24
29832 H 44.07818873167781 91.40375299705391 105.7330889282803 H 0.0 **** 0.06
29833 H 44.72736008643653 90.261120910187 106.93459902480575 H 0.0 **** 0.06
29834 H 44.7805702069075 92.01231869272522 107.25051828387666 H 0.0 **** 0.06
29835 H 45.834546378976995 91.30148721147049 106.00498317928705 H 0.0 **** 0.06
29836 C 24.836333123422946 95.08842167383168 21.540314964637616 C 0.0 **** -0.24
29837 H 25.00839950169774 94.80564997574476 22.578980122573114 H 0.0 **** 0.06
29838 H 24.217078757855177 94.33309555818758 21.056065568583392 H 0.0 **** 0.06
29839 H 25.791735637309216 95.16299800428101 21.021343531365858 H 0.0 **** 0.06
29840 H 24.328089116855097 96.05224875831598 21.506575309893094 H 0.0 **** 0.06
29841 C 105.57405989589381 23.092102866980344 26.484139832582912 C 0.0 **** -0.24
29842 H 105.20031063072204 22.07339556743078 26.58565766334442 H 0.0 **** 0.06
29843 H 106.55650950240943 23.073793722131366 26.01258866932909 H 0.0 **** 0.06
29844 H 105.65205503974238 23.55067749947537 27.469976044958457 H 0.0 **** 0.06
29845 H 104.8861552432507 23.672423652260342 25.86824941198705 H 0.0 **** 0.06
29846 C 30.35500703541871 19.290269215578405 108.7006478732395 C 0.0 **** -0.24
29847 H 31.23544466716487 19.023375365275285 108.116691390071 H 0.0 **** 0.06
29848 H 29.462190536339904 18.905266179218557 108.20658471504109 H 0.0 **** 0.06
29849 H 30.28727933682515 20.37525625331125 108.77896799427594 H 0.0 **** 0.06
29850 H 30.435275011463034 18.8581216656209 109.6971715332981 H 0.0 **** 0.06
29851 C 100.39142860616613 98.74075678912675 81.39334423153994 C 0.0 **** -0.24
29852 H 99.94864467024365 99.70458423358431 81.14441664395224 H 0.0 **** 0.06
29853 H 99.60714259591683 98.05176214019932 81.70817568104084 H 0.0 **** 0.06
29854 H 101.1092302039967 98.86860260724941 82.20339624147414 H 0.0 **** 0.06
29855 H 100.89940282997489 98.33753282192166 80.51722118524111 H 0.0 **** 0.06
29856 C 75.18528197792747 72.51485855615527 46.67512420530363 C 0.0 **** -0.24
29857 H 74.19090867882335 72.42666586744195 46.238453039806046 H 0.0 **** 0.06
29858 H 75.30400741581653 73.50729075543308 47.110958595651624 H 0.0 **** 0.06
29859 H 75.93647130607789 72.36610631885458 45.89949521844818 H 0.0 **** 0.06
29860 H 75.30990697452162 71.7601468363996 47.45098098069187 H 0.0 **** 0.06
29861 C 92.12198953432886 27.048350390006192 3.813054062483701 C 0.0 **** -0.24
29862 H 91.12224784668572 26.731586509779646 4.112679252115356 H 0.0 **** 0.06
29863 H 92.14542435223265 27.202929045181378 2.7343454775310647 H 0.0 **** 0.06
29864 H 92.84399721972588 26.278476722347165 4.086686020032772 H 0.0 **** 0.06
29865 H 92.37396551828718 27.98019054979045 4.319250647343665 H 0.0 **** 0.06
29866 C 4.16104056496404 68.35730374270307 67.99878343985768 C 0.0 **** -0.24
29867 H 3.501930239775078 68.16306780651303 67.15194873690481 H 0.0 **** 0.06
29868 H 3.567522530847654 68.4348013139415 68.90973098745351 H 0.0 **** 0.06
29869 H 4.698861259379086 69.29052541499084 67.83445108900503 H 0.0 **** 0.06
29870 H 4.873697516172328 67.53874466405139 68.0979703839127 H 0.0 **** 0.06
29871 C 86.546441664842 17.784948981987213 11.949766012526254 C 0.0 **** -0.24
29872 H 86.40891112067123 18.109195835223773 12.980638562500928 H 0.0 **** 0.06
29873 H 86.08379797746613 16.80633769185465 11.8127957068196 H 0.0 **** 0.06
29874 H 87.61168884506702 17.7176422273385 11.729012290158607 H 0.0 **** 0.06
29875 H 86.08061387703953 18.505231544608648 11.277326082017339 H 0.0 **** 0.06
29876 C 39.270354649181584 63.83228599326054 98.97351766988928 C 0.0 **** -0.24
29877 H 38.76541775847643 63.88217813627068 99.93763665131911 H 0.0 **** 0.06
29878 H 38.528095106646184 63.81889707450506 98.17552677837801 H 0.0 **** 0.06
29879 H 39.87326795865747 62.92538875188279 98.92492844058808 H 0.0 **** 0.06
29880 H 39.91535352180387 64.70374361277575 98.85538167476147 H 0.0 **** 0.06
29881 C 27.081881925702874 106.9974387336375 48.11405699531139 C 0.0 **** -0.24
29882 H 27.695313755405493 107.06136216978587 49.01253021304683 H 0.0 **** 0.06
29883 H 26.26093426387638 107.71101306990144 48.1826102839149 H 0.0 **** 0.06
29884 H 26.679222328074275 105.98800118894408 48.01988605865799 H 0.0 **** 0.06
29885 H 27.691863497184897 107.22733279240683 47.24031951551248 H 0.0 **** 0.06
29886 C 63.18829052405434 62.72549767487965 12.778878829316213 C 0.0 **** -0.24
29887 H 62.72826302181102 62.91327173985076 13.749611865271575 H 0.0 **** 0.06
29888 H 63.925889834512446 61.928747178532774 12.875671786878229 H 0.0 **** 0.06
29889 H 63.6767527686805 63.63321850704364 12.426462295662233 H 0.0 **** 0.06
29890 H 62.42008236494499 62.42534066115559 12.06527877631575 H 0.0 **** 0.06
29891 C 63.22097043200022 12.378480006529628 48.298393281049734 C 0.0 **** -0.24
29892 H 63.902697765195036 11.552396752860261 48.50383023010141 H 0.0 **** 0.06
29893 H 62.39856436494269 12.356772341046849 49.013359012671515 H 0.0 **** 0.06
29894 H 62.826423156513904 12.280113901718494 47.286180542789815 H 0.0 **** 0.06
29895 H 63.7572176148688 13.323137730495773 48.388895824043004 H 0.0 **** 0.06
29896 C 109.44620382996645 46.162216055245864 0.17979700970474255 C 0.0 **** -0.24
29897 H 110.0916277280356 45.977854720257795 1.0385617338832418 H 0.0 **** 0.06
29898 H 109.83251809067943 45.624218948030816 -0.6870135130421886 H 0.0 **** 0.06
29899 H 109.42323335880104 47.22980208716076 -0.03537803092982017 H 0.0 **** 0.06
29900 H 108.43699350891757 45.814803470437724 0.4028441758733976 H 0.0 **** 0.06
29901 C 14.12800014762746 0.7130906421585106 46.695305576989654 C 0.0 **** -0.24
29902 H 15.12039046685959 0.7692064916487276 46.24942290706777 H 0.0 **** 0.06
29903 H 13.428526084459094 1.2991136549266535 46.09905643913294 H 0.0 **** 0.06
29904 H 14.162155755616638 1.1088255193678727 47.7104396944346 H 0.0 **** 0.06
29905 H 13.800131887793967 -0.32681116477475136 46.72118387265908 H 0.0 **** 0.06
29906 C 46.791623916586985 61.95449954079214 107.56156099629789 C 0.0 **** -0.24
29907 H 46.19220376487843 61.250797427622075 106.98369526627755 H 0.0 **** 0.06
29908 H 47.32404775927816 61.41830456852952 108.34673978672788 H 0.0 **** 0.06
29909 H 46.138852390950944 62.70315515665857 108.01120319672606 H 0.0 **** 0.06
29910 H 47.50911418564152 62.446623820364806 106.90442218781686 H 0.0 **** 0.06
29911 C 73.29874293917806 25.447026779696444 82.32328916854118 C 0.0 **** -0.24
29912 H 73.33765310447404 26.361604916952075 82.91411548283477 H 0.0 **** 0.06
29913 H 73.06667236825106 25.693343312216797 81.28775002894042 H 0.0 **** 0.06
29914 H 72.52763524562536 24.789334946310618 82.72273911861095 H 0.0 **** 0.06
29915 H 74.26516312047545 24.943641844476815 82.3697077820238 H 0.0 **** 0.06
29916 C 92.60607398510163 93.1329132070565 104.59720517959673 C 0.0 **** -0.24
29917 H 92.1200442859423 92.69222061276298 103.72745805309938 H 0.0 **** 0.06
29918 H 93.34994136860382 93.85952527752735 104.26808625223396 H 0.0 **** 0.06
29919 H 93.09413762394891 92.34954774413714 105.17649989158588 H 0.0 **** 0.06
29920 H 91.85937318819634 93.63167224718396 105.2159784570998 H 0.0 **** 0.06
29921 C 101.62949257456907 108.70559595163877 45.89497621205868 C 0.0 **** -0.24
29922 H 101.13974281815962 109.29760633535949 45.121430556097756 H 0.0 **** 0.06
29923 H 102.06537096341586 109.37174062470176 46.640794138314256 H 0.0 **** 0.06
29924 H 102.41568154754293 108.09924762528647 45.445200080931514 H 0.0 **** 0.06
29925 H 100.8967353120496 108.05511042137977 46.37272755588437 H 0.0 **** 0.06
29926 C 85.31775342343073 3.460473934893173 60.2230009753501 C 0.0 **** -0.24
29927 H 85.94004652221659 4.355082442091771 60.25828446811244 H 0.0 **** 0.06
29928 H 84.65899161794582 3.5106461301706133 59.356660662613756 H 0.0 **** 0.06
29929 H 84.71967648166043 3.3983046046561753 61.13179406204632 H 0.0 **** 0.06
29930 H 85.95399669111083 2.5790060043222525 60.14616521982526 H 0.0 **** 0.06
29931 C 96.29774913201655 35.345868832376254 98.39646829847794 C 0.0 **** -0.24
29932 H 95.97654374481843 35.51553673259497 99.42450716448818 H 0.0 **** 0.06
29933 H 95.42609293885181 35.32336017424251 97.74292429356376 H 0.0 **** 0.06
29934 H 96.82458779922604 34.39354781363875 98.3329412575159 H 0.0 **** 0.06
29935 H 96.96386567582925 36.15109832879847 98.08749719553282 H 0.0 **** 0.06
29936 C 35.82363507975425 29.922733178101907 4.502627811940897 C 0.0 **** -0.24
29937 H 36.794628746414965 30.123245424965944 4.049136756433143 H 0.0 **** 0.06
29938 H 35.04001565085632 30.372025362387205 3.8935374901690807 H 0.0 **** 0.06
29939 H 35.79612207665365 30.34966922889305 5.5056331277444315 H 0.0 **** 0.06
29940 H 35.66705673796077 28.845759337462596 4.561793024683766 H 0.0 **** 0.06
29941 C 36.116020566591715 33.4693854952223 32.808587434845236 C 0.0 **** -0.24
29942 H 35.6196438403922 32.65026633344044 32.28710207659185 H 0.0 **** 0.06
29943 H 36.67985789469395 34.066404530264634 32.09169573123978 H 0.0 **** 0.06
29944 H 36.79541018786375 33.06348458571466 33.55806001975097 H 0.0 **** 0.06
29945 H 35.36826952044825 34.09562485778599 33.295236796222326 H 0.0 **** 0.06
29946 C 14.738187944611699 7.467958202923908 116.45774236482684 C 0.0 **** -0.24
29947 H 13.810197513655087 7.986503393525396 116.21495096690161 H 0.0 **** 0.06
29948 H 14.53945974577713 6.402429937715715 116.5757916069956 H 0.0 **** 0.06
29949 H 15.144428898416464 7.867563343246367 117.38684675926294 H 0.0 **** 0.06
29950 H 15.45767199922187 7.616303488099735 115.65310252046767 H 0.0 **** 0.06
29951 C 4.00110806445872 51.04839433858331 59.752218701565084 C 0.0 **** -0.24
29952 H 4.987495993785103 50.588881582443946 59.81337285608788 H 0.0 **** 0.06
29953 H 3.8446197070575607 51.44000248220232 58.74610859961183 H 0.0 **** 0.06
29954 H 3.9349611522688406 51.862378575758214 60.473636868478366 H 0.0 **** 0.06
29955 H 3.2388295009549637 50.30268838073414 59.97411706033472 H 0.0 **** 0.06
29956 C 53.685268744015985 104.76427088354507 51.550340904526834 C 0.0 **** -0.24
29957 H 54.64572396221826 105.14916117798384 51.208488357224276 H 0.0 **** 0.06
29958 H 53.1230147697102 104.38045706283577 50.69843278282943 H 0.0 **** 0.06
29959 H 53.12106712465621 105.56620829385119 52.026562380744195 H 0.0 **** 0.06
29960 H 53.8505214429894 103.96065761474136 52.267594132597125 H 0.0 **** 0.06
29961 C 4.810998693729724 69.21575534843942 38.92296671694885 C 0.0 **** -0.24
29962 H 4.287691639878471 68.97297037402075 37.998998613314654 H 0.0 **** 0.06
29963 H 4.143369769555992 69.76917894267464 39.58417241404936 H 0.0 **** 0.06
29964 H 5.685005648206509 69.82591107992064 38.69547433864324 H 0.0 **** 0.06
29965 H 5.128613369369324 68.2961004946153 39.41370269075054 H 0.0 **** 0.06
29966 C 107.0736731651993 43.965460261063505 66.33172539522326 C 0.0 **** -0.24
29967 H 106.08801694535 44.098105610009874 66.77741135240495 H 0.0 **** 0.06
29968 H 107.83983786136349 44.27039239536912 67.04587882947257 H 0.0 **** 0.06
29969 H 107.15149043085106 44.57725624660366 65.43224488586898 H 0.0 **** 0.06
29970 H 107.2167524798472 42.91614505243583 66.07121638731971 H 0.0 **** 0.06
29971 C 64.68925483177546 68.37131059951341 82.26335067912541 C 0.0 **** -0.24
29972 H 63.75126756241986 68.87196040955189 82.50340820400001 H 0.0 **** 0.06
29973 H 65.5163819248815 69.07054374025117 82.3858118963565 H 0.0 **** 0.06
29974 H 64.6583098038264 68.02145185389429 81.23121393368575 H 0.0 **** 0.06
29975 H 64.82896624333208 67.5211577759207 82.93107132796692 H 0.0 **** 0.06
29976 C 52.356080966350675 48.433368605050674 111.12023546606291 C 0.0 **** -0.24
29977 H 53.24944921880635 48.53947420622812 110.50534954631777 H 0.0 **** 0.06
29978 H 51.92969693202812 49.418334003246606 111.31388169931175 H 0.0 **** 0.06
29979 H 52.61990404711776 47.95944408034476 112.0653930502669 H 0.0 **** 0.06
29980 H 51.62605354874265 47.81658132966079 110.59580490950233 H 0.0 **** 0.06
29981 C 34.09311373854415 7.630287465437249 34.85759571055311 C 0.0 **** -0.24
29982 H 34.064268782633576 7.3608952059726676 33.80222009342856 H 0.0 **** 0.06
29983 H 34.784289981565934 8.461320210968438 35.001748411803945 H 0.0 **** 0.06
29984 H 34.427769797996305 6.773837802754713 35.44269334958429 H 0.0 **** 0.06
29985 H 33.096228900380694 7.927429276409754 35.18446170143315 H 0.0 **** 0.06
29986 C 41.9082457589665 83.16066916526171 87.7583796542987 C 0.0 **** -0.24
29987 H 42.5722400081475 83.51304761476024 88.54687883278174 H 0.0 **** 0.06
29988 H 42.46233163606317 83.08960728235587 86.82175962171596 H 0.0 **** 0.06
29989 H 41.081145942153796 83.86060251721142 87.63961871258218 H 0.0 **** 0.06
29990 H 41.51704168688991 82.17816062630618 88.02465653603068 H 0.0 **** 0.06
29991 C 12.343645986693218 44.05704211191937 83.01496301453238 C 0.0 **** -0.24
29992 H 12.437981503587537 42.99245733366793 83.23068752542062 H 0.0 **** 0.06
29993 H 11.480487114931691 44.4599275881359 83.54426442829828 H 0.0 **** 0.06
29994 H 12.21137018778768 44.19901513376176 81.94193561793531 H 0.0 **** 0.06
29995 H 13.245641569193964 44.57445374904289 83.34160827579899 H 0.0 **** 0.06
29996 C 49.21522084944044 2.6206756566902243 60.08270177570972 C 0.0 **** -0.24
29997 H 49.90264435130561 1.8273455196472383 60.375814676689515 H 0.0 **** 0.06
29998 H 48.98560933893681 2.527741335010191 59.02080310694822 H 0.0 **** 0.06
29999 H 49.677761225866135 3.589598560069277 60.27077828736884 H 0.0 **** 0.06
30000 H 48.29647965614022 2.5378665016977635 60.66279331238417 H 0.0 **** 0.06
30001 C 12.84984894829688 113.15615217412413 64.94348839379248 C 0.0 **** -0.24
30002 H 12.887630979371181 112.68741376830062 63.95934263109681 H 0.0 **** 0.06
30003 H 13.496463169143112 114.03349709297864 64.95225751572053 H 0.0 **** 0.06
30004 H 13.190251777888705 112.4460748583951 65.69663249591662 H 0.0 **** 0.06
30005 H 11.825433534813271 113.45693698534963 65.16249868894843 H 0.0 **** 0.06
30006 C 82.8884649119214 74.00486419430825 39.8634978157838 C 0.0 **** -0.24
30007 H 83.12588003423758 73.41084998399253 40.74583058820613 H 0.0 **** 0.06
30008 H 83.74038022465919 74.0026180988911 39.18422602451588 H 0.0 **** 0.06
30009 H 82.66541122519902 75.0285721138286 40.165030808311826 H 0.0 **** 0.06
30010 H 82.02089418624104 73.57656410438682 39.36080101245767 H 0.0 **** 0.06
30011 C 105.80521014726139 94.08841864261979 41.39048838635276 C 0.0 **** -0.24
30012 H 106.54852182269184 93.40400264733626 40.981111434771606 H 0.0 **** 0.06
30013 H 104.8375547886022 93.58721988032119 41.436018173027065 H 0.0 **** 0.06
30014 H 105.72994471385678 94.96698249046835 40.750513709295774 H 0.0 **** 0.06
30015 H 106.10486253912674 94.3925752853977 42.39240706183875 H 0.0 **** 0.06
30016 C 42.608715587020406 92.55600871445867 5.398410472414582 C 0.0 **** -0.24
30017 H 43.67077513188957 92.34348854379286 5.526639763684585 H 0.0 **** 0.06
30018 H 42.14455391540249 91.74988448117091 4.829014556413995 H 0.0 **** 0.06
30019 H 42.48882120273619 93.49654224251896 4.861858599146402 H 0.0 **** 0.06
30020 H 42.133103088416 92.63124168561913 6.3761694936361835 H 0.0 **** 0.06
30021 C 48.27148117842215 46.40504150268441 108.43538605047803 C 0.0 **** -0.24
30022 H 48.10498839151499 45.327929933387 108.4592566425014 H 0.0 **** 0.06
30023 H 49.03954794607313 46.670315002468044 109.16200106925284 H 0.0 **** 0.06
30024 H 47.34398305654066 46.92107365288058 108.68345260965347 H 0.0 **** 0.06
30025 H 48.59618769903425 46.699473470592466 107.4381105746846 H 0.0 **** 0.06
30026 C 100.25721911089104 69.2458369702411 22.452414334150916 C 0.0 **** -0.24
30027 H 100.8943914864698 69.4831117543713 23.304950588010257 H 0.0 **** 0.06
30028 H 99.33794323347558 68.77964645057745 22.80530547603817 H 0.0 **** 0.06
30029 H 100.78212014175205 68.55905180016526 21.787875363030793 H 0.0 **** 0.06
30030 H 100.01737656306511 70.1625193221526 21.913044311932566 H 0.0 **** 0.06
30031 C 16.495394269644436 92.98865527692249 48.249791719394594 C 0.0 **** -0.24
30032 H 17.357932454482096 93.6419797973146 48.37862058014548 H 0.0 **** 0.06
30033 H 15.730626907187485 93.50807850205035 47.670140523806886 H 0.0 **** 0.06
30034 H 16.0928129640605 92.72235093853459 49.22687832403271 H 0.0 **** 0.06
30035 H 16.799518158499126 92.08453316449447 47.72315257975404 H 0.0 **** 0.06
30036 C 100.93063403428843 51.65341830274281 98.62597005152068 C 0.0 **** -0.24
30037 H 101.11262788041054 50.579389260419276 98.64618790252737 H 0.0 **** 0.06
30038 H 100.56485915110062 51.978690619903034 99.60024242631263 H 0.0 **** 0.06
30039 H 100.18566312544053 51.88054362006244 97.86260416958592 H 0.0 **** 0.06
30040 H 101.85937091458115 52.174320196000764 98.39273197358037 H 0.0 **** 0.06
30041 C 42.08989308049585 107.77861565945318 30.566394622198494 C 0.0 **** -0.24
30042 H 41.149216062567355 108.2287605415959 30.24788191016465 H 0.0 **** 0.06
30043 H 42.08220120567998 107.65032184908051 31.649060097890597 H 0.0 **** 0.06
30044 H 42.91687140216882 108.42880561440481 30.282757910077677 H 0.0 **** 0.06
30045 H 42.208495355880935 106.80804782952745 30.085642606966296 H 0.0 **** 0.06
30046 C 45.60903049686166 11.23730040899946 105.55832718705784 C 0.0 **** -0.24
30047 H 46.444323573555515 11.068255819381207 104.87874542659381 H 0.0 **** 0.06
30048 H 44.68097806594339 11.289729210404687 104.98793877090819 H 0.0 **** 0.06
30049 H 45.76048209187151 12.17584844732744 106.09304866060981 H 0.0 **** 0.06
30050 H 45.55150449560267 10.417511651100739 106.27336217351885 H 0.0 **** 0.06
30051 C 94.58354189337535 49.32010728227792 52.93200930029908 C 0.0 **** -0.24
30052 H 95.55693942603511 49.785735930299225 52.77119172931142 H 0.0 **** 0.06
30053 H 94.39086663396361 49.2425733762113 54.00260342181193 H 0.0 **** 0.06
30054 H 94.58082679567133 48.32347353775971 52.4893391759244 H 0.0 **** 0.06
30055 H 93.80834820537575 49.927909332164475 52.46563888436596 H 0.0 **** 0.06
30056 C 37.68097910627972 58.499852445490035 24.046058567169894 C 0.0 **** -0.24
30057 H 36.83118168044055 57.98432301042587 23.598214035611193 H 0.0 **** 0.06
30058 H 37.368679241028445 59.488138558776825 24.385183004660803 H 0.0 **** 0.06
30059 H 38.47372358038851 58.60365396413442 23.30567666094629 H 0.0 **** 0.06
30060 H 38.04892109018607 57.92332472711513 24.8950670944983 H 0.0 **** 0.06
30061 C 45.7093447183494 102.97457045512994 57.15589103281911 C 0.0 **** -0.24
30062 H 45.031541389272775 102.76731175831782 57.983767487777584 H 0.0 **** 0.06
30063 H 45.43699479865352 102.3556446431623 56.300103434372375 H 0.0 **** 0.06
30064 H 46.731783709182736 102.7462308648067 57.45752082233366 H 0.0 **** 0.06
30065 H 45.63688336293099 104.02671804676177 56.88160518269564 H 0.0 **** 0.06
30066 C 98.13202685771981 75.72101629292624 98.38759380732333 C 0.0 **** -0.24
30067 H 98.9326326844766 76.28819436779668 97.91019832149553 H 0.0 **** 0.06
30068 H 98.44730987292073 75.41908730108719 99.3864614066633 H 0.0 **** 0.06
30069 H 97.91078265558116 74.83515033154833 97.7925228450055 H 0.0 **** 0.06
30070 H 97.24035774066803 76.34261632703834 98.4594092818972 H 0.0 **** 0.06
30071 C 35.66746907839115 113.83515014214274 19.360544403359086 C 0.0 **** -0.24
30072 H 35.608322078849426 113.45345935317056 18.341953877842123 H 0.0 **** 0.06
30073 H 35.57657265239578 114.9217490230075 19.347477775438314 H 0.0 **** 0.06
30074 H 36.6268248679271 113.55648016788172 19.798107610088724 H 0.0 **** 0.06
30075 H 34.85955712951642 113.40958780162921 19.955401460096567 H 0.0 **** 0.06
30076 C 111.4067146926803 70.61628335838071 52.03176796233291 C 0.0 **** -0.24
30077 H 110.40356271440947 70.9729461915729 51.80036433822875 H 0.0 **** 0.06
30078 H 111.35052787480494 69.59883387530851 52.41844941188181 H 0.0 **** 0.06
30079 H 111.85973271982802 71.26561273561575 52.781145711336684 H 0.0 **** 0.06
30080 H 112.01404506421652 70.62772403647145 51.12570504944382 H 0.0 **** 0.06
30081 C 101.55531477165192 85.53308754046856 17.570495940371757 C 0.0 **** -0.24
30082 H 101.64266125810306 84.45755129737267 17.42458430003677 H 0.0 **** 0.06
30083 H 102.51822682464109 86.00593609635706 17.37527649272573 H 0.0 **** 0.06
30084 H 101.2509593738898 85.7371848107972 18.597251551662765 H 0.0 **** 0.06
30085 H 100.80800607421978 85.93364009835744 16.88445336924397 H 0.0 **** 0.06
30086 C 18.53953230534421 16.979020297435653 0.40419644813408695 C 0.0 **** -0.24
30087 H 19.101765213706187 16.286228478726343 1.0295631906668063 H 0.0 **** 0.06
30088 H 18.338654261576153 16.51475648492709 -0.5614495037755205 H 0.0 **** 0.06
30089 H 19.12156741225681 17.888790334486913 0.256299213862178 H 0.0 **** 0.06
30090 H 17.596894343772135 17.225119885304082 0.8925401826048756 H 0.0 **** 0.06
30091 C 72.91424409987269 94.33528408952543 107.73687201657424 C 0.0 **** -0.24
30092 H 73.35740074535082 95.09796781667606 108.37800518885388 H 0.0 **** 0.06
30093 H 72.1676266157115 93.77558450213527 108.30195323258641 H 0.0 **** 0.06
30094 H 73.69261052823774 93.65546022257058 107.39039232583491 H 0.0 **** 0.06
30095 H 72.4390157723023 94.81226232655385 106.88043539328282 H 0.0 **** 0.06
30096 C 24.173966836426644 43.30789084424255 44.093843321122705 C 0.0 **** -0.24
30097 H 23.64237962312137 42.511786365118446 44.61498308128634 H 0.0 **** 0.06
30098 H 25.201305822170553 42.99591556238441 43.905585512453996 H 0.0 **** 0.06
30099 H 24.173421305291697 44.208106100716364 44.70733014363989 H 0.0 **** 0.06
30100 H 23.677367754073828 43.51398335315277 43.14504130565922 H 0.0 **** 0.06
30101 C 98.05303302756559 85.0256346066501 14.760823757642754 C 0.0 **** -0.24
30102 H 97.44150112316822 84.1511217572376 14.980514239585261 H 0.0 **** 0.06
30103 H 98.24671579591322 85.07375796809885 13.688750460441582 H 0.0 **** 0.06
30104 H 98.99888874014636 84.95189993992807 15.297788517273972 H 0.0 **** 0.06
30105 H 97.52601008694893 85.92590941124632 15.076142702005455 H 0.0 **** 0.06
30106 C 29.195020365847242 66.11323815705927 51.380473367681645 C 0.0 **** -0.24
30107 H 28.415454785089622 66.56460514703852 50.768081159463804 H 0.0 **** 0.06
30108 H 29.79861256762291 65.44418147595343 50.76627418137022 H 0.0 **** 0.06
30109 H 28.737219082438614 65.54703443545222 52.19213853640747 H 0.0 **** 0.06
30110 H 29.82913338434811 66.89658950502269 51.7966612578727 H 0.0 **** 0.06
30111 C 43.41632875302639 99.60749364472107 112.70089533075245 C 0.0 **** -0.24
30112 H 44.03901793389395 99.09186596063847 113.43199808824937 H 0.0 **** 0.06
30113 H 43.98365876133971 100.42055777364311 112.24891933812052 H 0.0 **** 0.06
30114 H 42.53351371339717 100.01232401299299 113.19699816028174 H 0.0 **** 0.06
30115 H 43.1072630004707 98.90488376156179 111.92685612597833 H 0.0 **** 0.06
30116 C 27.658737087925743 26.175240810510672 4.624803443541396 C 0.0 **** -0.24
30117 H 28.19483802261093 25.493360219017404 5.2857373855517835 H 0.0 **** 0.06
30118 H 28.03636898219056 27.188178014141556 4.765072299705963 H 0.0 **** 0.06
30119 H 26.59444312394684 26.148091856057363 4.860312053607203 H 0.0 **** 0.06
30120 H 27.810295677446057 25.87118338567535 3.5890833830892745 H 0.0 **** 0.06
30121 C 82.59706323117149 37.952792171006195 6.615776108464182 C 0.0 **** -0.24
30122 H 83.29815752595033 38.04785177885063 5.78697613870869 H 0.0 **** 0.06
30123 H 82.66566410333058 36.948540344411356 7.0355370300410875 H 0.0 **** 0.06
30124 H 81.58332594922948 38.12690132759511 6.255968310393948 H 0.0 **** 0.06
30125 H 82.84034986497241 38.685580991120275 7.3842154625283865 H 0.0 **** 0.06
30126 C 32.896553989851 71.37743953768063 104.48704663740043 C 0.0 **** -0.24
30127 H 32.28683166177087 70.7456175741448 103.84090371581087 H 0.0 **** 0.06
30128 H 32.26083834968204 72.10974328988257 104.9843722685068 H 0.0 **** 0.06
30129 H 33.64526739418035 71.89426183845146 103.88641785686616 H 0.0 **** 0.06
30130 H 33.393722292999605 70.75941494448847 105.23442286299237 H 0.0 **** 0.06
30131 C 32.844272968475494 1.8437554113022934 18.084558386824877 C 0.0 **** -0.24
30132 H 32.144958644177066 1.1077104247294614 18.480708860366395 H 0.0 **** 0.06
30133 H 33.19767242232646 2.4818975685473657 18.89525959629136 H 0.0 **** 0.06
30134 H 32.34318124590217 2.453484357357196 17.332726182238414 H 0.0 **** 0.06
30135 H 33.69155336187171 1.3302984967179423 17.630054375039478 H 0.0 **** 0.06
30136 C 71.18757557828064 43.18727775615244 63.15820883689685 C 0.0 **** -0.24
30137 H 70.9768994048948 42.12170020785996 63.252538263418955 H 0.0 **** 0.06
30138 H 72.13297581600082 43.41507467618521 63.64997085679647 H 0.0 **** 0.06
30139 H 70.38636598142617 43.75750184923501 63.6280019968886 H 0.0 **** 0.06
30140 H 71.25282989506178 43.453163660233656 62.10315693078735 H 0.0 **** 0.06
30141 C 6.820974444838976 99.52948274698386 35.39529967181342 C 0.0 **** -0.24
30142 H 7.559072211726384 98.73191494651627 35.31455801004702 H 0.0 **** 0.06
30143 H 5.868775240018282 99.11122478997876 35.722614442435436 H 0.0 **** 0.06
30144 H 6.6943010026045595 100.00607774796157 34.423010088142576 H 0.0 **** 0.06
30145 H 7.16251369872036 100.26807125311615 36.12095865447883 H 0.0 **** 0.06
30146 C 54.23478016788721 110.63639969536058 31.37074912672047 C 0.0 **** -0.24
30147 H 55.089088768916824 110.88465563080314 32.000121623657165 H 0.0 **** 0.06
30148 H 53.323243350496675 110.66411526503339 31.96875624320659 H 0.0 **** 0.06
30149 H 54.36778150050469 109.63726337546677 30.955583812680636 H 0.0 **** 0.06
30150 H 54.159347262914004 111.36065857267403 30.559363922960898 H 0.0 **** 0.06
30151 C 60.852063784743734 69.30721153554575 18.692484287279513 C 0.0 **** -0.24
30152 H 60.75872665831878 68.95923972719584 19.721537154752696 H 0.0 **** 0.06
30153 H 61.03029547086763 70.38236862752188 18.687132753709818 H 0.0 **** 0.06
30154 H 59.93132391799662 69.08892896384188 18.151313526833462 H 0.0 **** 0.06
30155 H 61.68584748826399 68.79655675364819 18.211250079567947 H 0.0 **** 0.06
30156 C 11.945274574065081 20.722140815243534 89.30805200485497 C 0.0 **** -0.24
30157 H 12.82591352096074 20.089650707215498 89.42219797498649 H 0.0 **** 0.06
30158 H 11.048956984782365 20.13844515543377 89.51759463736585 H 0.0 **** 0.06
30159 H 11.901844948864948 21.101385358010447 88.28705523096414 H 0.0 **** 0.06
30160 H 12.006038084522118 21.55885429299383 90.00387404271476 H 0.0 **** 0.06
30161 C 89.39370624276037 7.0250564815711165 112.45113515797658 C 0.0 **** -0.24
30162 H 90.23690217786628 7.113891670726552 113.13576561283008 H 0.0 **** 0.06
30163 H 89.60419313403426 6.248833759533616 111.71529038440954 H 0.0 **** 0.06
30164 H 89.23734916635348 7.975847299536408 111.94185308098179 H 0.0 **** 0.06
30165 H 88.4969271418365 6.761241930430538 113.0109021065677 H 0.0 **** 0.06
30166 C 33.96577290759842 115.89870230341285 65.66521859292095 C 0.0 **** -0.24
30167 H 33.71009664466476 114.86919068176411 65.914508373171 H 0.0 **** 0.06
30168 H 35.033315744881264 115.96697176406173 65.45481525600434 H 0.0 **** 0.06
30169 H 33.71784509819827 116.54819179131499 66.50461013383801 H 0.0 **** 0.06
30170 H 33.401432928771555 116.20994971602596 64.78568209551307 H 0.0 **** 0.06
30171 C 51.703164407813404 1.1146339299027943 17.9650002297372 C 0.0 **** -0.24
30172 H 51.5322192298008 1.9431274317575742 17.27771992189571 H 0.0 **** 0.06
30173 H 51.070845188423206 0.27259784477811877 17.681813619458637 H 0.0 **** 0.06
30174 H 51.45717984827459 1.4286797982764483 18.979383665407568 H 0.0 **** 0.06
30175 H 52.75038989094432 0.8158211034529188 17.92005981391145 H 0.0 **** 0.06
30176 C 14.076879709017518 88.42781433839804 55.42532445641486 C 0.0 **** -0.24
30177 H 14.944387746347218 87.87663498356798 55.0635192034935 H 0.0 **** 0.06
30178 H 13.770928195189128 88.02944819468445 56.39229705562543 H 0.0 **** 0.06
30179 H 13.258372009017094 88.3244933851752 54.71290892133303 H 0.0 **** 0.06
30180 H 14.335124460435082 89.48227923872048 55.53169405747996 H 0.0 **** 0.06
30181 C 27.9481039170183 78.89128716042487 34.42771510717961 C 0.0 **** -0.24
30182 H 28.715064252933104 79.2346311652731 33.73321908687524 H 0.0 **** 0.06
30183 H 27.001329567091375 79.37843548816244 34.19307742912076 H 0.0 **** 0.06
30184 H 28.2434739343623 79.14106093211109 35.4474796217288 H 0.0 **** 0.06
30185 H 27.833372290430134 77.81048374431049 34.33726249598334 H 0.0 **** 0.06
30186 C 46.13554640975707 113.88515735511194 0.11626416121924521 C 0.0 **** -0.24
30187 H 46.07247533876213 114.57708150418856 -0.7229836671955967 H 0.0 **** 0.06
30188 H 46.15160453063967 114.44900442665889 1.0500509142607442 H 0.0 **** 0.06
30189 H 47.04843247250534 113.29543740477303 0.03266761317292044 H 0.0 **** 0.06
30190 H 45.27089249740294 113.2220998885513 0.10691910883424605 H 0.0 **** 0.06
30191 C 28.09096964996297 85.76408934205122 17.372064280934268 C 0.0 **** -0.24
30192 H 28.430860674413992 86.17104280984654 16.41937074673436 H 0.0 **** 0.06
30193 H 27.379651078955533 84.9588890782411 17.189194460386034 H 0.0 **** 0.06
30194 H 27.60752370563837 86.5518717896336 17.951276589571393 H 0.0 **** 0.06
30195 H 28.945473567947857 85.37652197497104 17.92742055958493 H 0.0 **** 0.06
30196 C 37.18967895649827 46.838563667662925 7.179356763979698 C 0.0 **** -0.24
30197 H 36.592676689498916 45.947556598786036 7.372327303715849 H 0.0 **** 0.06
30198 H 36.74925558715444 47.690694035211834 7.697826728961331 H 0.0 **** 0.06
30199 H 37.21073446398927 47.03651985196518 6.107361884961762 H 0.0 **** 0.06
30200 H 38.20604908535044 46.67948418468859 7.539911138279848 H 0.0 **** 0.06
30201 C 45.979693806067985 103.25889975207843 68.6688888944561 C 0.0 **** -0.24
30202 H 46.46956567061855 104.05683507805253 68.11082103309522 H 0.0 **** 0.06
30203 H 46.730952124071734 102.67834549734124 69.2047188002619 H 0.0 **** 0.06
30204 H 45.442600907373844 102.60911283298992 67.97747716447844 H 0.0 **** 0.06
30205 H 45.27725294206118 103.69162611192357 69.38100593327042 H 0.0 **** 0.06
30206 C 56.10053003340195 80.17251534498601 51.75051818917916 C 0.0 **** -0.24
30207 H 56.76092828957755 80.983114826894 52.05771447392118 H 0.0 **** 0.06
30208 H 55.851830036539525 79.5578647404661 52.616861673509675 H 0.0 **** 0.06
30209 H 56.60159900074677 79.55911897501181 51.001527027174944 H 0.0 **** 0.06
30210 H 55.18672805504286 80.589592575648 51.32685970071219 H 0.0 **** 0.06
30211 C 49.36537962249038 6.182448013905002 66.46063378741138 C 0.0 **** -0.24
30212 H 49.51090899998596 6.9234405874914415 67.24553764658856 H 0.0 **** 0.06
30213 H 48.29726409453231 6.0475511581488774 66.281806514756 H 0.0 **** 0.06
30214 H 49.80433716472811 5.234003797573166 66.77006520577038 H 0.0 **** 0.06
30215 H 49.84684759856785 6.524016648889997 65.54427500058543 H 0.0 **** 0.06
30216 C 25.84367230690745 115.75350282754239 79.92156981202169 C 0.0 **** -0.24
30217 H 26.0918288485409 116.4710006900894 79.14032911081512 H 0.0 **** 0.06
30218 H 25.835024541833462 116.25779607189263 80.8882236000837 H 0.0 **** 0.06
30219 H 26.588587385954554 114.95785976949935 79.93355370726502 H 0.0 **** 0.06
30220 H 24.859945234147034 115.32801289372844 79.72388745944639 H 0.0 **** 0.06
30221 C 115.22333501844615 14.76489337780572 17.26426216254495 C 0.0 **** -0.24
30222 H 115.08918035174479 14.909004723718226 16.19180076034193 H 0.0 **** 0.06
30223 H 114.29028875391889 14.408997771430109 17.701556081799 H 0.0 **** 0.06
30224 H 115.50371267624715 15.712098020748897 17.725245579758163 H 0.0 **** 0.06
30225 H 116.00980132279507 14.030410891927602 17.43561896007798 H 0.0 **** 0.06
30226 C 20.21745409432185 39.926044100838965 84.83616659885186 C 0.0 **** -0.24
30227 H 19.85793150173629 39.8353581855759 85.86147756273027 H 0.0 **** 0.06
30228 H 20.15532092937991 40.96671289910262 84.52065623686406 H 0.0 **** 0.06
30229 H 19.60325574003548 39.30927896324192 84.18053325879953 H 0.0 **** 0.06
30230 H 21.253021046263484 39.59083034548371 84.78463260912804 H 0.0 **** 0.06
30231 C 59.98270386303944 98.5647392130646 77.42736266934773 C 0.0 **** -0.24
30232 H 58.94375760936479 98.66863635506297 77.73948284379938 H 0.0 **** 0.06
30233 H 60.29306775319284 99.46234333335394 76.89212619160762 H 0.0 **** 0.06
30234 H 60.0809555010216 97.69836005795531 76.77235365399807 H 0.0 **** 0.06
30235 H 60.61387294951371 98.42901088613121 78.3064522310315 H 0.0 **** 0.06
30236 C 64.00701328073865 100.69122358322599 110.95277460671221 C 0.0 **** -0.24
30237 H 63.77187607672158 101.57565324621382 110.36091261724448 H 0.0 **** 0.06
30238 H 65.07827813620338 100.49207807032022 110.89784040876731 H 0.0 **** 0.06
30239 H 63.45804447135481 99.83519945222102 110.56105803985228 H 0.0 **** 0.06
30240 H 63.72205644295627 100.86091283710587 111.99106942033849 H 0.0 **** 0.06
30241 C 18.55318808358271 108.84573450965695 70.9983251967314 C 0.0 **** -0.24
30242 H 18.026183924925448 108.4198403596265 70.14367975075194 H 0.0 **** 0.06
30243 H 19.37845693918794 108.1908213065006 71.27859293014134 H 0.0 **** 0.06
30244 H 17.863766758555613 108.94180157966092 71.83799203850853 H 0.0 **** 0.06
30245 H 18.941379171019918 109.82826305263316 70.73247518726981 H 0.0 **** 0.06
30246 C 18.267398989996963 44.267252478834564 85.65074062860248 C 0.0 **** -0.24
30247 H 17.387811433288846 44.71094711546763 85.18395289976422 H 0.0 **** 0.06
30248 H 18.37854319055336 44.65966948190683 86.66188595236537 H 0.0 **** 0.06
30249 H 19.15223819877579 44.51341733901444 85.06485640303464 H 0.0 **** 0.06
30250 H 18.148648115202064 43.184304111927204 85.69221421591925 H 0.0 **** 0.06
30251 C 83.77847995554157 11.376888800044355 38.09101192874118 C 0.0 **** -0.24
30252 H 83.08925139390203 11.762590393503046 37.33955117881294 H 0.0 **** 0.06
30253 H 83.90970701258547 10.305180008599677 37.946853676503196 H 0.0 **** 0.06
30254 H 83.37413924177844 11.563613650943296 39.085834716134116 H 0.0 **** 0.06
30255 H 84.74188619271933 11.877903037423891 37.990876097261435 H 0.0 **** 0.06
30256 C 58.287591740620094 4.358310133264467 48.655681626562995 C 0.0 **** -0.24
30257 H 58.43412347362966 3.924508953354888 49.64388446119054 H 0.0 **** 0.06
30258 H 57.549856754009134 5.159095283026971 48.71492056585427 H 0.0 **** 0.06
30259 H 57.933150770485646 3.587837224866746 47.969709935643436 H 0.0 **** 0.06
30260 H 59.23329249121206 4.7607669365507945 48.291395158651795 H 0.0 **** 0.06
30261 C 50.57351062122376 85.570963964183 101.32511190844579 C 0.0 **** -0.24
30262 H 50.611542908682225 85.39898932142637 100.24863927430934 H 0.0 **** 0.06
30263 H 50.31161703594802 86.61219056182065 101.51673123519245 H 0.0 **** 0.06
30264 H 51.549852968179096 85.35531829397257 101.76092795161537 H 0.0 **** 0.06
30265 H 49.82443289406757 84.91825417023836 101.77104836938884 H 0.0 **** 0.06
30266 C 24.61765704086097 97.38554891166305 58.39560784592671 C 0.0 **** -0.24
30267 H 23.78005945664534 97.57994573867947 59.06453687933466 H 0.0 **** 0.06
30268 H 24.98158757197926 98.32819925660439 57.985495756061006 H 0.0 **** 0.06
30269 H 24.289861080552384 96.73785582588323 57.5818569620893 H 0.0 **** 0.06
30270 H 25.418884425216767 96.89561620012432 58.94864181152713 H 0.0 **** 0.06
30271 C 44.29175005960002 41.270549222919556 24.704763130688264 C 0.0 **** -0.24
30272 H 44.72026899982848 40.69025365188759 23.8873461264036 H 0.0 **** 0.06
30273 H 43.22837268127222 41.423483789916816 24.523900024106865 H 0.0 **** 0.06
30274 H 44.79298121938592 42.236029212044855 24.76645289776917 H 0.0 **** 0.06
30275 H 44.42749450105026 40.73076791897489 25.642678177734524 H 0.0 **** 0.06
30276 C 65.83453049524488 60.31835419359793 25.83070004750664 C 0.0 **** -0.24
30277 H 65.12282834446242 60.454841712316586 26.64508397822317 H 0.0 **** 0.06
30278 H 65.30714443711997 59.97024896512361 24.942205423069254 H 0.0 **** 0.06
30279 H 66.58296776147449 59.5808278140068 26.122262256653443 H 0.0 **** 0.06
30280 H 66.3256714024474 61.26747627226586 25.614120029840052 H 0.0 **** 0.06
30281 C 37.31327210067519 68.63376510248219 97.68712518798176 C 0.0 **** -0.24
30282 H 36.79360217677794 68.61185530767855 98.64505686627714 H 0.0 **** 0.06
30283 H 36.59057335883841 68.78758103856396 96.88461832817421 H 0.0 **** 0.06
30284 H 37.83123040653288 67.68687242137145 97.53246604675476 H 0.0 **** 0.06
30285 H 38.037456560238326 69.4487723669672 97.6853855509749 H 0.0 **** 0.06
30286 C 72.7309782780211 42.78247598237813 29.807026826662337 C 0.0 **** -0.24
30287 H 73.79323562587325 42.64736167601008 30.01122386480219 H 0.0 **** 0.06
30288 H 72.38642687059252 41.99344656356129 29.138075476841777 H 0.0 **** 0.06
30289 H 72.57178350846777 43.75293974185941 29.337516388014848 H 0.0 **** 0.06
30290 H 72.17281085079685 42.73540264235927 30.742438087737753 H 0.0 **** 0.06
30291 C 111.12916221091194 79.2599786633333 46.055633453994716 C 0.0 **** -0.24
30292 H 110.97057495143487 78.77547951274113 45.0916159830461 H 0.0 **** 0.06
30293 H 112.18934135532908 79.22997524056547 46.307416995262315 H 0.0 **** 0.06
30294 H 110.55790399025375 78.73640310918034 46.82296305527885 H 0.0 **** 0.06
30295 H 110.7966554594953 80.29575839473699 45.99953993161188 H 0.0 **** 0.06
30296 C 62.552267458032794 13.245812217200722 77.99253789145217 C 0.0 **** -0.24
30297 H 62.09874539158428 14.002031772041349 78.63386442979939 H 0.0 **** 0.06
30298 H 62.8326360378448 13.697465788403292 77.0408995763537 H 0.0 **** 0.06
30299 H 61.837241164256106 12.441979345280402 77.81833956100428 H 0.0 **** 0.06
30300 H 63.44061509631849 12.84333713908832 78.47892480340704 H 0.0 **** 0.06
30301 C 10.597988781371875 56.24923606950886 105.9795889584878 C 0.0 **** -0.24
30302 H 11.489905616894195 56.461505285874516 105.38926772496677 H 0.0 **** 0.06
30303 H 9.972602443372875 57.14110326529319 106.0246869150086 H 0.0 **** 0.06
30304 H 10.890761872403441 55.95875142078088 106.98812676222911 H 0.0 **** 0.06
30305 H 10.04000791912685 55.437042858415694 105.51379984072724 H 0.0 **** 0.06
30306 C 47.768845986741894 95.11382630034046 24.614557179115607 C 0.0 **** -0.24
30307 H 47.41772698223052 94.74823797634923 25.579531576720797 H 0.0 **** 0.06
30308 H 47.2063568858539 94.62828390241782 23.816764858770256 H 0.0 **** 0.06
30309 H 48.82852822260658 94.8851828131686 24.503838423164318 H 0.0 **** 0.06
30310 H 47.621731547671324 96.19179214850786 24.558898767146566 H 0.0 **** 0.06
30311 C 32.25731410669431 1.8312893545880797 10.293706908082754 C 0.0 **** -0.24
30312 H 31.231798053608202 2.0575583896328453 10.58485993950839 H 0.0 **** 0.06
30313 H 32.91804202777843 1.97552404667465 11.148399203197698 H 0.0 **** 0.06
30314 H 32.559779720294 2.4941264577596485 9.483400513084206 H 0.0 **** 0.06
30315 H 32.318263049882944 0.7962452243855296 9.957707161141798 H 0.0 **** 0.06
30316 C 81.2341879704552 57.09312125750796 73.61334976677054 C 0.0 **** -0.24
30317 H 81.79129312434185 57.711319980868666 74.31765522540258 H 0.0 **** 0.06
30318 H 80.95037755391695 57.694050123333795 72.74860113889554 H 0.0 **** 0.06
30319 H 80.3363839283509 56.709278198265054 74.09899926932752 H 0.0 **** 0.06
30320 H 81.85739047885627 56.260516470681466 73.28847777245403 H 0.0 **** 0.06
30321 C 63.1623976838114 52.88947474893764 61.24276388037882 C 0.0 **** -0.24
30322 H 63.33439490244478 52.91122164786739 62.31869462633392 H 0.0 **** 0.06
30323 H 62.814517184111885 51.89833930962766 60.95118253523481 H 0.0 **** 0.06
30324 H 64.09200224156294 53.11666391170697 60.721593682741286 H 0.0 **** 0.06
30325 H 62.40710807111055 53.6310343288327 60.98104456462383 H 0.0 **** 0.06
30326 C 86.61861788026917 93.48509976934722 45.20563104251598 C 0.0 **** -0.24
30327 H 86.71012333038112 94.53419049690902 44.92320335328334 H 0.0 **** 0.06
30328 H 86.45291035929759 93.4123516690386 46.2809485547861 H 0.0 **** 0.06
30329 H 87.535123925308 92.9572742471191 44.941479821324045 H 0.0 **** 0.06
30330 H 85.77661208988272 93.03879441432741 44.677032221175764 H 0.0 **** 0.06
30331 C 107.15864724867816 82.67429167322297 40.94690780386057 C 0.0 **** -0.24
30332 H 106.87443699451961 81.90714554650441 41.66791916129034 H 0.0 **** 0.06
30333 H 108.13359847313538 82.43175561368773 40.52403035178796 H 0.0 **** 0.06
30334 H 107.20833064279617 83.64197551568643 41.44711832358456 H 0.0 **** 0.06
30335 H 106.41544291537616 82.71572304218378 40.14953848645959 H 0.0 **** 0.06
30336 C 72.65298413914815 21.755694980129732 81.43779101919822 C 0.0 **** -0.24
30337 H 73.30871466919712 21.91906874689525 82.29296728384764 H 0.0 **** 0.06
30338 H 72.87559770053446 22.48947134112555 80.66331287095647 H 0.0 **** 0.06
30339 H 71.61450004859654 21.86186714854935 81.75159069222974 H 0.0 **** 0.06
30340 H 72.81253946875273 20.75162882852453 81.04434439899794 H 0.0 **** 0.06
30341 C 102.75710716027555 58.67112572928307 24.48679093476987 C 0.0 **** -0.24
30342 H 102.88945538194042 59.44566715603768 25.24212098389905 H 0.0 **** 0.06
30343 H 103.31351624496551 57.77986647477146 24.778065506326257 H 0.0 **** 0.06
30344 H 103.12550492106209 59.03194623883915 23.52735176627954 H 0.0 **** 0.06
30345 H 101.69803336625333 58.42539805154491 24.400920990102925 H 0.0 **** 0.06
30346 C 100.40360398464833 64.95321803138108 88.22002655323513 C 0.0 **** -0.24
30347 H 100.4692483087959 65.76236765010773 87.49248432293862 H 0.0 **** 0.06
30348 H 101.26241569347226 64.29141112666599 88.10577654773991 H 0.0 **** 0.06
30349 H 99.48483722855264 64.38988663596353 88.0536372101464 H 0.0 **** 0.06
30350 H 100.3973031390355 65.36912468035706 89.22742116806918 H 0.0 **** 0.06
30351 C 20.04759732481449 11.649553601331178 30.266316267483774 C 0.0 **** -0.24
30352 H 20.770197035793274 11.850803786829935 29.475021741889094 H 0.0 **** 0.06
30353 H 19.544264198000917 10.70373780333728 30.066949321260182 H 0.0 **** 0.06
30354 H 19.313671262166082 12.453793841215337 30.300566092385594 H 0.0 **** 0.06
30355 H 20.56647902881798 11.58986096830277 31.223811238175898 H 0.0 **** 0.06
30356 C 15.35658591567622 27.44525626315027 12.833277739191658 C 0.0 **** -0.24
30357 H 15.219748675864025 28.46997067284289 12.485786738472115 H 0.0 **** 0.06
30358 H 15.15033472802547 27.394463524607005 13.902991058846425 H 0.0 **** 0.06
30359 H 16.38433521422158 27.13288587852682 12.645647404840247 H 0.0 **** 0.06
30360 H 14.67220953497457 26.786135325137735 12.298798978396121 H 0.0 **** 0.06
30361 C 69.8237279739767 26.12836251106895 9.968709896936424 C 0.0 **** -0.24
30362 H 68.99907428035095 25.818167764172763 9.326570114811684 H 0.0 **** 0.06
30363 H 69.62669556313813 27.128097983020638 10.35502731496744 H 0.0 **** 0.06
30364 H 70.74831286314839 26.13621165275979 9.391663861278875 H 0.0 **** 0.06
30365 H 69.91979232023124 25.42934980268648 10.799069937039679 H 0.0 **** 0.06
30366 C 48.993577309917725 44.85709848452499 32.32940583603889 C 0.0 **** -0.24
30367 H 48.26963837868317 45.51650722460223 31.849342740092 H 0.0 **** 0.06
30368 H 49.28762448974845 44.07132645420051 31.633301275936304 H 0.0 **** 0.06
30369 H 48.54411359661691 44.408864808722186 33.21487906727117 H 0.0 **** 0.06
30370 H 49.8723028760067 45.433793478355696 32.619651042183506 H 0.0 **** 0.06
30371 C 28.017699599118032 65.39911209798225 93.10934846038711 C 0.0 **** -0.24
30372 H 28.417048988015154 66.37886157099862 92.8459057892909 H 0.0 **** 0.06
30373 H 28.195436961267433 65.20753796885637 94.16705715690273 H 0.0 **** 0.06
30374 H 28.513671787603073 64.63308411764214 92.51274664781485 H 0.0 **** 0.06
30375 H 26.94639070536499 65.37867786313862 92.91026897576137 H 0.0 **** 0.06
30376 C 50.83802040305702 92.07123328010277 92.63338364548395 C 0.0 **** -0.24
30377 H 50.8435652842212 91.12151575751159 93.16855825668145 H 0.0 **** 0.06
30378 H 50.69995703422302 91.88610692489908 91.56757795393654 H 0.0 **** 0.06
30379 H 51.78612815017616 92.5839418674982 92.79365695140393 H 0.0 **** 0.06
30380 H 50.02153070752128 92.69136155688312 93.0033396719347 H 0.0 **** 0.06
30381 C 53.17743919169064 82.50280004361491 2.8135441101410805 C 0.0 **** -0.24
30382 H 52.80336362669652 82.90145704366222 1.8702334149518833 H 0.0 **** 0.06
30383 H 53.28349140637806 83.31435332891749 3.5347453775596307 H 0.0 **** 0.06
30384 H 54.14767352989054 82.03277383443651 2.649926531801384 H 0.0 **** 0.06
30385 H 52.47603558795561 81.76329544733346 3.1983295462849526 H 0.0 **** 0.06
30386 C 48.95004074718993 73.59577504394096 21.219590934390027 C 0.0 **** -0.24
30387 H 48.317858253642726 73.5052751554694 22.103265685928875 H 0.0 **** 0.06
30388 H 48.33872008211196 73.48389423327356 20.323788094360168 H 0.0 **** 0.06
30389 H 49.71314361264709 72.81817503155199 21.23776116271685 H 0.0 **** 0.06
30390 H 49.4283267852704 74.57509910344916 21.213863475026017 H 0.0 **** 0.06
30391 C 84.42182922812276 1.3023918825624037 90.10851931670211 C 0.0 **** -0.24
30392 H 84.04503788925933 2.2991899783608005 89.87700285750665 H 0.0 **** 0.06
30393 H 84.47314667644844 1.1757743955337787 91.18960416839127 H 0.0 **** 0.06
30394 H 85.41762740570243 1.1825520732864447 89.68003890855772 H 0.0 **** 0.06
30395 H 83.75226272195869 0.5532326215516719 89.68477986909556 H 0.0 **** 0.06
30396 C 65.27005892140485 90.89910377333416 99.40980885554663 C 0.0 **** -0.24
30397 H 65.60892285128492 90.33552283574659 100.27896172824222 H 0.0 **** 0.06
30398 H 64.42548438487961 91.52827553346515 99.69148550908244 H 0.0 **** 0.06
30399 H 64.96158067304822 90.2064738519168 98.62670290468134 H 0.0 **** 0.06
30400 H 66.08365878279992 91.52451771693546 99.0421954210953 H 0.0 **** 0.06
30401 C 6.358839473898875 12.673660170015776 55.84385184373439 C 0.0 **** -0.24
30402 H 6.228459624076935 13.69814291281105 55.497731822972156 H 0.0 **** 0.06
30403 H 6.900468391106479 12.67608582537235 56.79035449204415 H 0.0 **** 0.06
30404 H 6.925069068521129 12.108924840306386 55.101971715413505 H 0.0 **** 0.06
30405 H 5.382670930264979 12.210599732998375 55.983769326435954 H 0.0 **** 0.06
30406 C 40.55290301010234 91.07129568532363 10.455156606511451 C 0.0 **** -0.24
30407 H 41.440304196122085 91.55929560493732 10.858385059731916 H 0.0 **** 0.06
30408 H 39.7288710154523 91.78469481025428 10.425509198941086 H 0.0 **** 0.06
30409 H 40.28234478726057 90.22799154136351 11.090094634756724 H 0.0 **** 0.06
30410 H 40.76117495401044 90.71477334547342 9.445473641021934 H 0.0 **** 0.06
30411 C 14.480096724223188 47.50339804273969 5.3914013027040255 C 0.0 **** -0.24
30412 H 15.533031233029618 47.44090848621724 5.663757434424255 H 0.0 **** 0.06
30413 H 14.381652146186838 47.43968481057141 4.307072322798263 H 0.0 **** 0.06
30414 H 14.071442285653973 48.45252429842219 5.738703601176681 H 0.0 **** 0.06
30415 H 13.934966397733973 46.68155682527885 5.855496010969887 H 0.0 **** 0.06
30416 C 91.94650955383912 102.24185580957166 79.02761158596678 C 0.0 **** -0.24
30417 H 91.23442325493403 101.50968155966717 79.40652167510643 H 0.0 **** 0.06
30418 H 92.94440303897741 101.80296701983366 79.01185657491874 H 0.0 **** 0.06
30419 H 91.9452908423894 103.11865419104996 79.67634972064837 H 0.0 **** 0.06
30420 H 91.66278855132899 102.536401714736 78.0177601082961 H 0.0 **** 0.06
30421 C 86.5615883389022 16.87044954105187 32.167942147620295 C 0.0 **** -0.24
30422 H 87.60976866798163 16.713204009665247 31.91097545034893 H 0.0 **** 0.06
30423 H 86.49596350692772 17.44219526747088 33.09333403160895 H 0.0 **** 0.06
30424 H 86.07166733836019 15.906130214263925 32.29962193495243 H 0.0 **** 0.06
30425 H 86.07006911127661 17.421029991941168 31.3649776021216 H 0.0 **** 0.06
30426 C 46.71959714352667 55.369920779428014 106.5823123495569 C 0.0 **** -0.24
30427 H 46.46028881046565 56.31868384781495 106.1125647673498 H 0.0 **** 0.06
30428 H 46.35032870214346 55.36094894212329 107.60794644846752 H 0.0 **** 0.06
30429 H 47.802804806190046 55.24974796274978 106.58467890454983 H 0.0 **** 0.06
30430 H 46.26492944787378 54.55171198749275 106.02416756363331 H 0.0 **** 0.06
30431 C 80.4940797318987 112.23262612235271 105.3089039985669 C 0.0 **** -0.24
30432 H 80.2463360541133 112.48303088762519 106.3406299865124 H 0.0 **** 0.06
30433 H 81.55648699258364 112.40432038601003 105.1383554438674 H 0.0 **** 0.06
30434 H 79.91122904236718 112.8591223335131 104.63368289527244 H 0.0 **** 0.06
30435 H 80.25986529387691 111.18396579489867 105.1234258894961 H 0.0 **** 0.06
30436 C 59.52420958506517 89.54268940080877 3.5572677170170124 C 0.0 **** -0.24
30437 H 59.72321555072035 88.55093459509743 3.150530669201544 H 0.0 **** 0.06
30438 H 58.44716898045457 89.68811543433307 3.6465304185699097 H 0.0 **** 0.06
30439 H 59.939873735367236 90.29860761905442 2.8920618506558924 H 0.0 **** 0.06
30440 H 59.98487513204396 89.63078812157298 4.541606012809538 H 0.0 **** 0.06
30441 C 44.41690054692418 71.95421744413 6.804388452481319 C 0.0 **** -0.24
30442 H 43.439744340979246 71.64777064622223 6.431851150777291 H 0.0 **** 0.06
30443 H 44.30221961880579 72.82635288161197 7.448412562299964 H 0.0 **** 0.06
30444 H 45.06358492040067 72.2064414254964 5.9631682500816225 H 0.0 **** 0.06
30445 H 44.86156557454342 71.13770476260237 7.3721718122815645 H 0.0 **** 0.06
30446 C 36.8379011181531 109.7626429460008 69.31882750831045 C 0.0 **** -0.24
30447 H 37.338175249053336 110.63501948025379 68.89772066526288 H 0.0 **** 0.06
30448 H 35.84864440791668 109.66074814439528 68.87224202253518 H 0.0 **** 0.06
30449 H 36.73872494417233 109.88805959032263 70.39770136572614 H 0.0 **** 0.06
30450 H 37.42572897054569 108.87013544858314 69.10919299398498 H 0.0 **** 0.06
30451 C 48.001286084800874 73.75258921460056 78.57216026564214 C 0.0 **** -0.24
30452 H 49.069230100668676 73.69989405067375 78.36029057015631 H 0.0 **** 0.06
30453 H 47.80139524270948 74.60794457599317 79.21863138193325 H 0.0 **** 0.06
30454 H 47.68414359307877 72.83675779478389 79.07013352731775 H 0.0 **** 0.06
30455 H 47.45137923668676 73.86742209971126 77.63729828852686 H 0.0 **** 0.06
30456 C 102.79487694165459 0.33209061198871836 76.00305653283047 C 0.0 **** -0.24
30457 H 103.70752688523302 0.8408392999369454 75.69354112692986 H 0.0 **** 0.06
30458 H 101.92968065362115 0.9155128245736108 75.68750480254138 H 0.0 **** 0.06
30459 H 102.78698148470647 0.22745295648287822 77.08819782024676 H 0.0 **** 0.06
30460 H 102.75490613729019 -0.6542407116715907 75.54236169036946 H 0.0 **** 0.06
30461 C 71.75462136086946 36.027121622422584 91.58013327390427 C 0.0 **** -0.24
30462 H 71.12154635724133 36.91419352701692 91.58223491598767 H 0.0 **** 0.06
30463 H 72.28536743780288 35.95832086850865 92.52908635793858 H 0.0 **** 0.06
30464 H 72.47468103969686 36.09716721830259 90.76427134187497 H 0.0 **** 0.06
30465 H 71.13594259906867 35.1396643002152 91.44377307174648 H 0.0 **** 0.06
30466 C 61.986049648233916 2.6418392966025976 52.9028416418372 C 0.0 **** -0.24
30467 H 62.64273636561336 1.9329080764672142 52.39911352638984 H 0.0 **** 0.06
30468 H 62.21684790400781 2.656644967629802 53.96843019875726 H 0.0 **** 0.06
30469 H 60.94867149982264 2.341046001280489 52.759649883197454 H 0.0 **** 0.06
30470 H 62.13731338729241 3.63705193994997 52.48436098337663 H 0.0 **** 0.06
30471 C 8.390911142306898 84.83049366329317 114.76193717815755 C 0.0 **** -0.24
30472 H 7.408151783218678 84.45184353440999 115.04514233778991 H 0.0 **** 0.06
30473 H 8.478465371516865 84.8344399032928 113.67554468950567 H 0.0 **** 0.06
30474 H 9.163026081521839 84.18895064431513 115.18694312657203 H 0.0 **** 0.06
30475 H 8.512465010913633 85.84499218016919 115.14088222871737 H 0.0 **** 0.06
30476 C 116.59874861268273 74.40096260641968 82.92261685524926 C 0.0 **** -0.24
30477 H 117.627066862845 74.7516798156837 83.01566543735566 H 0.0 **** 0.06
30478 H 115.95848766225407 74.97245877733667 83.59465852945874 H 0.0 **** 0.06
30479 H 116.55122656803216 73.3445072360216 83.18414618940716 H 0.0 **** 0.06
30480 H 116.2618709466195 74.53729522885953 81.89487815690796 H 0.0 **** 0.06
30481 C 78.56769532383808 94.7278583597373 8.53098878345682 C 0.0 **** -0.24
30482 H 77.95240766404774 94.17502084263117 9.240936491600934 H 0.0 **** 0.06
30483 H 78.11672524372273 95.70212057595691 8.342460042277636 H 0.0 **** 0.06
30484 H 78.63414602404583 94.17035544262444 7.596907017369432 H 0.0 **** 0.06
30485 H 79.56702461443157 94.86311893141271 8.945677292462648 H 0.0 **** 0.06
30486 C 78.80237176071392 38.4282241890474 66.83838930794215 C 0.0 **** -0.24
30487 H 78.74748262505904 37.420263156352235 67.2483803394449 H 0.0 **** 0.06
30488 H 78.1511327489116 39.088947951089835 67.41061376165939 H 0.0 **** 0.06
30489 H 78.48227732651122 38.41487021385228 65.79625677161096 H 0.0 **** 0.06
30490 H 79.82956470786985 38.78905683316566 66.8982931027682 H 0.0 **** 0.06
30491 C 67.38550367562635 6.422535244917862 31.80282565328895 C 0.0 **** -0.24
30492 H 66.85241507613449 5.784167553632541 31.097875844487035 H 0.0 **** 0.06
30493 H 68.37570705439902 6.652145587501105 31.40714216561014 H 0.0 **** 0.06
30494 H 67.48628984788644 5.904912576851702 32.75698806625735 H 0.0 **** 0.06
30495 H 66.82802803844305 7.348085136258959 31.947837025368877 H 0.0 **** 0.06
30496 C 85.76614178750543 50.99754294268797 22.5151894335975 C 0.0 **** -0.24
30497 H 86.15914775766177 50.033884456618125 22.839958000161147 H 0.0 **** 0.06
30498 H 84.95045460172253 51.296690057441936 23.173226187226618 H 0.0 **** 0.06
30499 H 85.39749800721233 50.91266210824517 21.493203650495786 H 0.0 **** 0.06
30500 H 86.55852183005368 51.744192006724575 22.555537214202644 H 0.0 **** 0.06
30501 C 104.67536498594117 88.26782827665107 65.48500763738585 C 0.0 **** -0.24
30502 H 104.04579784404396 88.96127074519126 64.92758346097051 H 0.0 **** 0.06
30503 H 105.65357453378866 88.71948980931435 65.651689786763 H 0.0 **** 0.06
30504 H 104.79238779220196 87.3457645033061 64.91529977637126 H 0.0 **** 0.06
30505 H 104.20946896405769 88.04617329430641 66.44529037921268 H 0.0 **** 0.06
30506 C 22.28787491013061 78.58878269334403 98.66571270052859 C 0.0 **** -0.24
30507 H 23.261774925744945 79.00482351413294 98.40574958541018 H 0.0 **** 0.06
30508 H 22.39925449963947 77.8963502388269 99.4996634209553 H 0.0 **** 0.06
30509 H 21.878848338205188 78.05904724872869 97.80489585858592 H 0.0 **** 0.06
30510 H 21.613107426663078 79.39659639921899 98.94955040874612 H 0.0 **** 0.06
30511 C 8.41868697365635 31.616406359680497 76.95801136685498 C 0.0 **** -0.24
30512 H 7.62456618510717 32.33392672329478 77.16228964144943 H 0.0 **** 0.06
30513 H 9.385209000541522 32.07864835462928 77.15743665594914 H 0.0 **** 0.06
30514 H 8.371084299464357 31.30923188868647 75.91323397445552 H 0.0 **** 0.06
30515 H 8.293127040112623 30.74443594642662 77.59928293316324 H 0.0 **** 0.06
30516 C 83.85660910510444 15.152039987980942 37.42316198808182 C 0.0 **** -0.24
30517 H 83.31458074053904 14.222490792931268 37.59761405069107 H 0.0 **** 0.06
30518 H 83.3657729316804 15.964981903037966 37.957505710171695 H 0.0 **** 0.06
30519 H 83.86682381047962 15.371242421049374 36.35553428543022 H 0.0 **** 0.06
30520 H 84.88057660953359 15.047384723849547 37.781852372552564 H 0.0 **** 0.06
30521 C 5.326656042268979 61.48730949494573 4.208377004116798 C 0.0 **** -0.24
30522 H 5.729658733856748 61.31719389112386 5.206559079122982 H 0.0 **** 0.06
30523 H 4.631640391942161 60.68538722983683 3.9558616668358724 H 0.0 **** 0.06
30524 H 6.140685140573536 61.50385584186491 3.48533643013981 H 0.0 **** 0.06
30525 H 4.8020663690023575 62.4425236230549 4.187267580082917 H 0.0 **** 0.06
30526 C 76.84075656155784 106.99110051735738 48.458367653691326 C 0.0 **** -0.24
30527 H 77.13689764520711 106.4164036611786 47.58138083046741 H 0.0 **** 0.06
30528 H 75.76561602618227 106.89220036731476 48.612567637807075 H 0.0 **** 0.06
30529 H 77.09074301892329 108.04141989224735 48.30529575962025 H 0.0 **** 0.06
30530 H 77.36983284220403 106.61637355127712 49.33410557479556 H 0.0 **** 0.06
30531 C 20.889177988220524 86.01144833784514 66.20121369785812 C 0.0 **** -0.24
30532 H 21.448941647034246 85.56762184366542 67.02472852913792 H 0.0 **** 0.06
30533 H 19.824154458842315 85.8316003981958 66.34786828261599 H 0.0 **** 0.06
30534 H 21.208172615692035 85.56232817785701 65.26070720135479 H 0.0 **** 0.06
30535 H 21.075804089513383 87.08482692049776 66.17278724688342 H 0.0 **** 0.06
30536 C 57.538090750942786 33.61448115587904 42.67570399562655 C 0.0 **** -0.24
30537 H 56.52638491398994 33.79223176264316 42.30955914641635 H 0.0 **** 0.06
30538 H 57.49869479569901 32.974872363972935 43.55796221814478 H 0.0 **** 0.06
30539 H 58.00123249578337 34.565734438182695 42.93637013750859 H 0.0 **** 0.06
30540 H 58.124514569540025 33.126126590051626 41.89767644758754 H 0.0 **** 0.06
30541 C 102.83013974826778 44.69200208954027 100.1218701398897 C 0.0 **** -0.24
30542 H 101.83631243529447 44.905266698566436 100.51445694195576 H 0.0 **** 0.06
30543 H 103.51393182939958 45.48968413126744 100.41209370044385 H 0.0 **** 0.06
30544 H 102.78524766430857 44.62910409101153 99.034375524886 H 0.0 **** 0.06
30545 H 103.18383868492273 43.74449416723348 100.52610850895891 H 0.0 **** 0.06
30546 C 10.870167033541208 60.37199288017613 112.58589034818755 C 0.0 **** -0.24
30547 H 10.035280030536939 60.051745944803336 113.21036504155472 H 0.0 **** 0.06
30548 H 10.578776182436869 60.320006711548764 111.53711642466038 H 0.0 **** 0.06
30549 H 11.72516981090493 59.71942796581357 112.75973852900933 H 0.0 **** 0.06
30550 H 11.139217244717045 61.39825101729061 112.83877425203826 H 0.0 **** 0.06
30551 C 45.532335810510354 102.91302929474404 84.64955058638645 C 0.0 **** -0.24
30552 H 45.31910727985436 103.33812881827001 83.66854040271278 H 0.0 **** 0.06
30553 H 46.42626175802069 102.29200740794764 84.58925797125687 H 0.0 **** 0.06
30554 H 44.68793636419739 102.30478477534152 84.97260182125052 H 0.0 **** 0.06
30555 H 45.69641608309316 103.71712070668869 85.36644150621044 H 0.0 **** 0.06
30556 C 55.90318933800027 102.1409698797867 84.80049667469254 C 0.0 **** -0.24
30557 H 56.089498521356255 101.9840052972877 85.86309019703205 H 0.0 **** 0.06
30558 H 56.490852244975194 102.98913448572989 84.45054521848479 H 0.0 **** 0.06
30559 H 54.84371246343375 102.3417532870829 84.64339255266265 H 0.0 **** 0.06
30560 H 56.18910914437648 101.24622819633794 84.24606341202397 H 0.0 **** 0.06
30561 C 38.10544577772498 3.3356715966691297 111.46944696803655 C 0.0 **** -0.24
30562 H 39.16878948809324 3.515229392902711 111.31520029154854 H 0.0 **** 0.06
30563 H 37.633204385720035 3.108699853150398 110.51346847497251 H 0.0 **** 0.06
30564 H 37.645089950234706 4.225682458729636 111.8994134668767 H 0.0 **** 0.06
30565 H 37.97423203210275 2.4943466330299913 112.14930075678274 H 0.0 **** 0.06
30566 C 107.1104970962254 0.8551973730818219 103.4965388746441 C 0.0 **** -0.24
30567 H 107.84320444506707 1.4769748562821832 104.00991651830054 H 0.0 **** 0.06
30568 H 106.2610902173073 0.6749623720078688 104.15582886767527 H 0.0 **** 0.06
30569 H 107.56764732103565 -0.09574276968552908 103.22418351067188 H 0.0 **** 0.06
30570 H 106.76917934529018 1.3651823749029148 102.59527614941521 H 0.0 **** 0.06
30571 C 110.13904560691097 75.5185145354925 91.4648327811432 C 0.0 **** -0.24
30572 H 109.54676544158102 76.13752305598047 92.13818230397587 H 0.0 **** 0.06
30573 H 109.99635616585644 74.46744592303503 91.71657169825934 H 0.0 **** 0.06
30574 H 111.19319197559813 75.77636203639571 91.56807076033886 H 0.0 **** 0.06
30575 H 109.82098225110431 75.69332931614696 90.43713708362844 H 0.0 **** 0.06
30576 C 93.71639486895694 114.12683281712945 69.33617257830434 C 0.0 **** -0.24
30577 H 93.72359474141965 114.85841747601314 70.1448808583267 H 0.0 **** 0.06
30578 H 92.95019552655575 114.39660609839544 68.60902476830535 H 0.0 **** 0.06
30579 H 93.50134134058246 113.13837185554144 69.7422352307413 H 0.0 **** 0.06
30580 H 94.69122995883768 114.11602367601712 68.84872137970757 H 0.0 **** 0.06
30581 C 107.53561542933988 87.15169737589429 16.203472349163235 C 0.0 **** -0.24
30582 H 106.99070889070325 86.99435306190298 15.271836323282344 H 0.0 **** 0.06
30583 H 107.6281265213197 86.20390258610274 16.73385777901032 H 0.0 **** 0.06
30584 H 106.99292056237852 87.86464556430263 16.82439033229545 H 0.0 **** 0.06
30585 H 108.52794546398346 87.54427726414093 15.982311596541336 H 0.0 **** 0.06
30586 C 46.29629364906265 10.632704867607117 91.05184445829758 C 0.0 **** -0.24
30587 H 47.248632642126665 10.96629679819145 91.46483824969152 H 0.0 **** 0.06
30588 H 45.671243259402445 10.237736576443723 91.85292937474375 H 0.0 **** 0.06
30589 H 46.4747355971175 9.853403319444368 90.31201377457865 H 0.0 **** 0.06
30590 H 45.79066227737036 11.474715621986746 90.57805882143771 H 0.0 **** 0.06
30591 C 38.42461593683181 27.713269124033133 1.2990517903409113 C 0.0 **** -0.24
30592 H 38.39745655231752 27.867866935972977 2.377105488561483 H 0.0 **** 0.06
30593 H 39.0582335491401 26.855342972008053 1.0716700217942616 H 0.0 **** 0.06
30594 H 38.8294993629066 28.602527302862853 0.8145073148529036 H 0.0 **** 0.06
30595 H 37.41590691049632 27.526776618440422 0.9320564982159567 H 0.0 **** 0.06
30596 C 33.64323955056136 56.087182971394306 103.66964977312705 C 0.0 **** -0.24
30597 H 34.41524616259261 56.28073872840931 104.41423819076738 H 0.0 **** 0.06
30598 H 32.8702321002263 55.453356213054285 104.10438888734004 H 0.0 **** 0.06
30599 H 34.08627459618458 55.58382726164864 102.810585214328 H 0.0 **** 0.06
30600 H 33.20214157323443 57.03126841238515 103.35034239222489 H 0.0 **** 0.06
30601 C 72.90802720999102 67.51411270621136 22.595661462078994 C 0.0 **** -0.24
30602 H 72.737018827312 66.90481798636418 23.483079647859967 H 0.0 **** 0.06
30603 H 71.9548698873765 67.7301774669269 22.113299472417822 H 0.0 **** 0.06
30604 H 73.552363267273 66.97260484905524 21.90226235981146 H 0.0 **** 0.06
30605 H 73.38946507251165 68.44869002684086 22.883381422494722 H 0.0 **** 0.06
30606 C 90.58462926157429 108.8798792972242 37.50837124458607 C 0.0 **** -0.24
30607 H 90.36142434166297 108.65069828201825 38.550411357282 H 0.0 **** 0.06
30608 H 91.6420434454283 109.12336576459714 37.40882475373033 H 0.0 **** 0.06
30609 H 89.98242574336535 109.72892289436277 37.18631254128735 H 0.0 **** 0.06
30610 H 90.35145490588664 108.01345637575787 36.8883679500305 H 0.0 **** 0.06
30611 C 44.41464458430673 93.19498517253493 48.47555755925944 C 0.0 **** -0.24
30612 H 45.29584546584833 92.63162067437841 48.17059142343447 H 0.0 **** 0.06
30613 H 43.88080421488888 92.64348824266628 49.249588289029276 H 0.0 **** 0.06
30614 H 43.76037277183329 93.33936502082346 47.61565417252797 H 0.0 **** 0.06
30615 H 44.72086165058059 94.16555067694662 48.86568147181356 H 0.0 **** 0.06
30616 C 25.40724178826558 95.04948963725857 17.438053913030274 C 0.0 **** -0.24
30617 H 24.616147134137577 95.23240655155428 16.710736495217986 H 0.0 **** 0.06
30618 H 25.581291673754052 95.95335577186614 18.02067774791493 H 0.0 **** 0.06
30619 H 26.322603483365846 94.76969182584136 16.91630576102216 H 0.0 **** 0.06
30620 H 25.107189855581183 94.23953652306511 18.103018395804128 H 0.0 **** 0.06
30621 C 92.74132903063924 10.353502918164356 58.35887523963466 C 0.0 **** -0.24
30622 H 92.66512568657066 10.20705108496912 57.282358745366004 H 0.0 **** 0.06
30623 H 93.71604468674144 10.77772253394123 58.600815520771214 H 0.0 **** 0.06
30624 H 92.62657839286356 9.394178517291529 58.86460937553033 H 0.0 **** 0.06
30625 H 91.95644049462902 11.033537545488077 58.690044170655476 H 0.0 **** 0.06
30626 C 17.474486978706068 1.6588605769053117 84.45764174419338 C 0.0 **** -0.24
30627 H 16.47482114565318 1.9347426631634477 84.79338013266903 H 0.0 **** 0.06
30628 H 17.741008067212164 0.6853043161850394 84.87058454322658 H 0.0 **** 0.06
30629 H 18.190971652364965 2.4069255426472864 84.79792621638404 H 0.0 **** 0.06
30630 H 17.49018668241729 1.6085456487645615 83.36894440840311 H 0.0 **** 0.06
30631 C 43.57480257190193 65.44118471912225 54.103380703282525 C 0.0 **** -0.24
30632 H 43.02820165734847 66.23621898917708 54.61216160724564 H 0.0 **** 0.06
30633 H 44.521806878181195 65.83343064617026 53.73151245826126 H 0.0 **** 0.06
30634 H 42.9822253521619 65.06963627461926 53.26801617503825 H 0.0 **** 0.06
30635 H 43.7674025370585 64.62782972553828 54.80330562659432 H 0.0 **** 0.06
30636 C 53.65023611895554 48.168900702419336 88.67622316297809 C 0.0 **** -0.24
30637 H 54.51288031393442 47.589445114978076 89.0051763240154 H 0.0 **** 0.06
30638 H 52.85641769108027 48.09041129313849 89.41969928051287 H 0.0 **** 0.06
30639 H 53.29456382103989 47.77886236019188 87.7221506715482 H 0.0 **** 0.06
30640 H 53.93733176760432 49.213172098310054 88.55746608627211 H 0.0 **** 0.06
30641 C 97.60844480762793 5.777997226218574 114.4393374473321 C 0.0 **** -0.24
30642 H 97.19568089632986 6.7866948606965 114.39581623408704 H 0.0 **** 0.06
30643 H 96.79605032021297 5.058282463002527 114.53707069774225 H 0.0 **** 0.06
30644 H 98.27364523674723 5.694682162311977 115.29782790035676 H 0.0 **** 0.06
30645 H 98.16658015110482 5.575106355651556 113.52565141623701 H 0.0 **** 0.06
30646 C 55.00601340412214 76.21124062362858 31.151309864569726 C 0.0 **** -0.24
30647 H 54.119441121803504 76.1332137950998 31.780504079935795 H 0.0 **** 0.06
30648 H 54.79119514938361 76.85556418253029 30.29838180557101 H 0.0 **** 0.06
30649 H 55.28771859750901 75.22020418619454 30.79672718182286 H 0.0 **** 0.06
30650 H 55.82597703194216 76.63633905614827 31.730965790097088 H 0.0 **** 0.06
30651 C 46.901930993955034 14.060857794909793 4.802465854775136 C 0.0 **** -0.24
30652 H 47.671494704875016 13.289112417316687 4.800817828344236 H 0.0 **** 0.06
30653 H 47.26088196311713 14.93444878964766 4.258102966072656 H 0.0 **** 0.06
30654 H 46.67182933145307 14.341610914645685 5.829841554128137 H 0.0 **** 0.06
30655 H 46.00213949203112 13.675809600524133 4.320784205842713 H 0.0 **** 0.06
30656 C 75.07798157958217 6.812401854512871 32.80550322563792 C 0.0 **** -0.24
30657 H 75.03937531223539 6.585944062710581 33.87103989428044 H 0.0 **** 0.06
30658 H 74.59701960988752 7.773321458467137 32.62084379959012 H 0.0 **** 0.06
30659 H 74.55689966423867 6.032306181194201 32.24993650626669 H 0.0 **** 0.06
30660 H 76.11725394725019 6.857651423320405 32.481169535463295 H 0.0 **** 0.06
30661 C 99.74443340994713 41.050246526639285 95.7019278501214 C 0.0 **** -0.24
30662 H 99.55532240868394 40.2677865490449 96.43673760046715 H 0.0 **** 0.06
30663 H 100.46398293050612 40.6893296202569 94.96553830243221 H 0.0 **** 0.06
30664 H 100.1462501682721 41.93017270964292 96.20256351554224 H 0.0 **** 0.06
30665 H 98.81212548502384 41.31125836729058 95.20062479999922 H 0.0 **** 0.06
30666 C 85.53333648347919 106.66396267891972 26.762402153369052 C 0.0 **** -0.24
30667 H 85.1186887448086 105.67226364086898 26.581694562874475 H 0.0 **** 0.06
30668 H 86.5996157540275 106.65889956255145 26.53488977068318 H 0.0 **** 0.06
30669 H 85.38529254442167 106.93495340513138 27.80746528509647 H 0.0 **** 0.06
30670 H 85.0296609416306 107.38950323206868 26.12333655203858 H 0.0 **** 0.06
30671 C 49.1296889519426 79.94118587684977 37.158651526911626 C 0.0 **** -0.24
30672 H 48.918188184443046 79.04575016199774 37.74272108302114 H 0.0 **** 0.06
30673 H 49.844173580910436 79.70004343052653 36.3707599881933 H 0.0 **** 0.06
30674 H 49.55105977365249 80.70835108467043 37.809216828100574 H 0.0 **** 0.06
30675 H 48.20640858909396 80.3099121817219 36.71252014443252 H 0.0 **** 0.06
30676 C 54.88436035223381 95.72677386117209 92.83513880227034 C 0.0 **** -0.24
30677 H 54.628576731824865 94.78677776066522 92.34496219651572 H 0.0 **** 0.06
30678 H 55.877617676462286 95.64632169581077 93.27711766853264 H 0.0 **** 0.06
30679 H 54.15537249092678 95.93796306398923 93.61647975983917 H 0.0 **** 0.06
30680 H 54.87677867808725 96.5331844326297 92.1017327198611 H 0.0 **** 0.06
30681 C 79.83328562132448 85.84822651047608 100.15103868337587 C 0.0 **** -0.24
30682 H 80.53198189544759 86.6751053520091 100.02201585857472 H 0.0 **** 0.06
30683 H 80.37610936349705 84.9035154182867 100.10321212991704 H 0.0 **** 0.06
30684 H 79.08481349021491 85.87852319403038 99.35840344541694 H 0.0 **** 0.06
30685 H 79.34108680846924 85.93661167145382 101.1197767190406 H 0.0 **** 0.06
30686 C 26.528777059840337 62.67867423158652 102.40125698615154 C 0.0 **** -0.24
30687 H 26.021134710699926 62.75186242403141 103.36303642949628 H 0.0 **** 0.06
30688 H 27.45273783974463 62.11100247512022 102.52010282797843 H 0.0 **** 0.06
30689 H 26.761668148294376 63.679320422202416 102.03677938297386 H 0.0 **** 0.06
30690 H 25.880619671532997 62.17310302034746 101.68635164975103 H 0.0 **** 0.06
30691 C 91.05002185264024 53.701845562953 56.15712342963482 C 0.0 **** -0.24
30692 H 90.12834957561611 54.15705390395922 56.52067341170806 H 0.0 **** 0.06
30693 H 91.72717321441243 54.482448368683094 55.809866638369215 H 0.0 **** 0.06
30694 H 90.82018545843673 53.027005910859856 55.33276875885966 H 0.0 **** 0.06
30695 H 91.52164546718095 53.14270565707869 56.964769177424785 H 0.0 **** 0.06
30696 C 7.47303216480293 82.62491239492405 56.652775530471594 C 0.0 **** -0.24
30697 H 7.941737050164988 82.18678130468095 55.77094396421304 H 0.0 **** 0.06
30698 H 7.500453346369568 83.71175009790048 56.576974284345646 H 0.0 **** 0.06
30699 H 8.011688064676378 82.3083925795419 57.545200829995444 H 0.0 **** 0.06
30700 H 6.437263699452615 82.29017645245281 56.716104395328195 H 0.0 **** 0.06
30701 C 14.491474420746414 95.60486344537068 45.65460331148472 C 0.0 **** -0.24
30702 H 14.256343561540518 95.65217257242091 46.71843053317491 H 0.0 **** 0.06
30703 H 13.821458644940193 94.89781245059177 45.16680761668641 H 0.0 **** 0.06
30704 H 15.523372326559326 95.27761647249145 45.52629855205379 H 0.0 **** 0.06
30705 H 14.36523212233432 96.59256862936184 45.211146075873444 H 0.0 **** 0.06
30706 C 37.251512540273694 103.35132560313107 55.043865634273374 C 0.0 **** -0.24
30707 H 37.24053096542448 103.83398468288019 56.020766111863395 H 0.0 **** 0.06
30708 H 36.295995268584846 102.85362419825819 54.87512594223031 H 0.0 **** 0.06
30709 H 38.055277448369054 102.6151949302064 55.01151411650582 H 0.0 **** 0.06
30710 H 37.41337191074766 104.1008594610449 54.269652830958904 H 0.0 **** 0.06
30711 C 44.449953892855035 88.10550457540234 99.44136841259194 C 0.0 **** -0.24
30712 H 44.39506147723438 89.18867864975556 99.55133080715225 H 0.0 **** 0.06
30713 H 45.17857946337722 87.70617377980409 100.1487726919326 H 0.0 **** 0.06
30714 H 44.75685194452967 87.85805300607811 98.42548001616336 H 0.0 **** 0.06
30715 H 43.47195120222881 87.66983146580097 99.64245437592035 H 0.0 **** 0.06
30716 C 90.10896952429201 57.71032410288141 54.55105568104605 C 0.0 **** -0.24
30717 H 90.12339802715522 58.78827976966726 54.708288932370124 H 0.0 **** 0.06
30718 H 91.11325547639333 57.366627910888674 54.30202424536864 H 0.0 **** 0.06
30719 H 89.42871110511649 57.47139566157994 53.7336484129132 H 0.0 **** 0.06
30720 H 89.77013588329024 57.21521571228458 55.46193684788571 H 0.0 **** 0.06
30721 C 87.26832336039149 111.72097384236645 65.07865925949395 C 0.0 **** -0.24
30722 H 87.29463643082818 112.79619272123556 65.2599271268142 H 0.0 **** 0.06
30723 H 87.44389899616738 111.19120929485409 66.0147984959375 H 0.0 **** 0.06
30724 H 88.04369596322607 111.4559009605031 64.35953570368511 H 0.0 **** 0.06
30725 H 86.29208174386417 111.44374794126978 64.68031757350184 H 0.0 **** 0.06
30726 C 72.12534644785401 53.873442371981184 21.98988139157646 C 0.0 **** -0.24
30727 H 71.60978827046827 53.55486962847431 21.084412406153742 H 0.0 **** 0.06
30728 H 73.16288306381526 54.11348912491928 21.752737084831757 H 0.0 **** 0.06
30729 H 72.09748582630556 53.07033569381707 22.725983548572497 H 0.0 **** 0.06
30730 H 71.6324436337901 54.75590926325833 22.39730247987601 H 0.0 **** 0.06
30731 C 108.15221381872803 20.532907993155657 74.75052635367311 C 0.0 **** -0.24
30732 H 108.51967426664021 19.50821362489904 74.6791306013582 H 0.0 **** 0.06
30733 H 108.58048313099368 21.129061350387445 73.94458246542919 H 0.0 **** 0.06
30734 H 108.44326173659479 20.95653010744174 75.71215748113579 H 0.0 **** 0.06
30735 H 107.06550407551418 20.534665955110516 74.6663016249372 H 0.0 **** 0.06
30736 C 93.42574789475185 92.7860659445974 7.478151376863821 C 0.0 **** -0.24
30737 H 93.16227352542913 93.22204274409697 6.514988151540365 H 0.0 **** 0.06
30738 H 94.1505440347126 91.98475446357313 7.3294721439231125 H 0.0 **** 0.06
30739 H 92.53051578097569 92.3837787052727 7.95170535638789 H 0.0 **** 0.06
30740 H 93.86037317220027 93.55560070135229 8.117351018586419 H 0.0 **** 0.06
30741 C 37.16590804834695 31.21799418470067 28.34059496387033 C 0.0 **** -0.24
30742 H 37.09269039773682 32.21986513491589 27.916285170740366 H 0.0 **** 0.06
30743 H 36.96960310971559 30.479455330303438 27.562638178351335 H 0.0 **** 0.06
30744 H 36.43244966437413 31.107934696012308 29.139623560041002 H 0.0 **** 0.06
30745 H 38.1675761537378 31.06629450874408 28.742937091532838 H 0.0 **** 0.06
30746 C 1.8384355042632468 97.10193922806758 80.66778592390853 C 0.0 **** -0.24
30747 H 2.5143452394998835 97.46245268565747 79.89113017444211 H 0.0 **** 0.06
30748 H 2.3980976293109073 96.50081728033928 81.38440902981671 H 0.0 **** 0.06
30749 H 1.0566081200189217 96.49286805192301 80.21406221060809 H 0.0 **** 0.06
30750 H 1.3873742616803781 97.95209303412034 81.17897785833799 H 0.0 **** 0.06
30751 C 12.862638791895773 88.63946072346656 91.16115685376303 C 0.0 **** -0.24
30752 H 12.38991416268999 89.45149020800616 91.71348691485318 H 0.0 **** 0.06
30753 H 13.79367561278567 88.99500205772813 90.718162674127 H 0.0 **** 0.06
30754 H 12.192271072643674 88.29796998811813 90.37249839951414 H 0.0 **** 0.06
30755 H 13.074853922275427 87.81347680619882 91.83949691087969 H 0.0 **** 0.06
30756 C 102.69181468807488 46.58418278705361 21.785387201699535 C 0.0 **** -0.24
30757 H 102.62605622682389 45.791108592236725 21.039803420718584 H 0.0 **** 0.06
30758 H 101.86459503995815 47.279722942038816 21.650159947028243 H 0.0 **** 0.06
30759 H 103.63665811858954 47.11498123071556 21.666606322330182 H 0.0 **** 0.06
30760 H 102.64233847331371 46.14885098598637 22.782974409251324 H 0.0 **** 0.06
30761 C 47.392849507003234 95.63821749343322 107.19245678520085 C 0.0 **** -0.24
30762 H 48.043969707380114 94.87000563613722 106.77776427904163 H 0.0 **** 0.06
30763 H 47.62967422358261 95.78472695610586 108.24704063149144 H 0.0 **** 0.06
30764 H 46.35331593427699 95.32467622194278 107.09424367267576 H 0.0 **** 0.06
30765 H 47.54270526156358 96.57320322837495 106.6532139317664 H 0.0 **** 0.06
30766 C 38.83141524221264 59.82026386501718 75.46339499988596 C 0.0 **** -0.24
30767 H 38.111642646076746 59.14905818429395 74.99519708054657 H 0.0 **** 0.06
30768 H 38.516498569363534 60.03516356382477 76.48463717722365 H 0.0 **** 0.06
30769 H 38.8838444451074 60.74949306680878 74.89522487702482 H 0.0 **** 0.06
30770 H 39.81355980327402 59.34663788894636 75.47694195168322 H 0.0 **** 0.06
30771 C 36.43502862972076 64.37591044295749 44.5726735329053 C 0.0 **** -0.24
30772 H 36.713106288894664 65.06886968703631 43.777783389321 H 0.0 **** 0.06
30773 H 37.19604560341827 64.39489069721074 45.35234515602457 H 0.0 **** 0.06
30774 H 36.35722075943073 63.367811152873976 44.164982783996976 H 0.0 **** 0.06
30775 H 35.474738625066095 64.67299497189927 44.99380752060685 H 0.0 **** 0.06
30776 C 89.9243761784293 9.13525607578407 103.04339985683404 C 0.0 **** -0.24
30777 H 90.14122774922183 9.883743786320338 103.80471085515373 H 0.0 **** 0.06
30778 H 89.27005186071352 9.568540338693623 102.28487722585791 H 0.0 **** 0.06
30779 H 89.42960663734777 8.280333169950154 103.50414695052649 H 0.0 **** 0.06
30780 H 90.85416416316374 8.809036481404263 102.57825794587444 H 0.0 **** 0.06
30781 C 55.59734682426574 44.840896750240915 31.014455968062407 C 0.0 **** -0.24
30782 H 55.57109860900687 44.298100188392766 31.959887589169057 H 0.0 **** 0.06
30783 H 55.80374000958204 44.14448691436212 30.20185634509889 H 0.0 **** 0.06
30784 H 56.37990274035633 45.59782706648326 31.052582385252663 H 0.0 **** 0.06
30785 H 54.634158601301465 45.32194613781485 30.845302549993733 H 0.0 **** 0.06
30786 C 69.24469396235304 41.67153217156272 37.51234492940726 C 0.0 **** -0.24
30787 H 69.65910553307924 41.05559075638038 36.71481992410557 H 0.0 **** 0.06
30788 H 69.58223165431693 42.700597474057275 37.38857141766687 H 0.0 **** 0.06
30789 H 69.581051205406 41.2924948657116 38.47673614604881 H 0.0 **** 0.06
30790 H 68.15567309976925 41.63802388986605 37.46817734386647 H 0.0 **** 0.06
30791 C 33.85663224213634 0.743915825881146 58.44417182914873 C 0.0 **** -0.24
30792 H 34.600034233239384 0.19404407314738137 57.86688376414591 H 0.0 **** 0.06
30793 H 33.86639698629925 0.3905550447572068 59.47597406741397 H 0.0 **** 0.06
30794 H 32.86967451040891 0.581623219026909 58.01357529018739 H 0.0 **** 0.06
30795 H 34.09307780543765 1.8074375497197934 58.42196895676213 H 0.0 **** 0.06
30796 C 85.73708100661545 78.50130577306072 38.31131780205156 C 0.0 **** -0.24
30797 H 84.80296300997139 78.41099645026537 38.86630050153705 H 0.0 **** 0.06
30798 H 86.41212070280426 77.69752560536136 38.60531069303784 H 0.0 **** 0.06
30799 H 86.1988489082249 79.4637205462231 38.53128634644899 H 0.0 **** 0.06
30800 H 85.53182941306636 78.43184333238298 37.24275252207317 H 0.0 **** 0.06
30801 C 2.8252867422585837 20.21486864654743 89.20501577629634 C 0.0 **** -0.24
30802 H 3.8858587359083714 19.97534798930127 89.28308546632152 H 0.0 **** 0.06
30803 H 2.410684214640355 20.357990191387643 90.20314200262337 H 0.0 **** 0.06
30804 H 2.3036940454311434 19.396521280676524 88.70771036864593 H 0.0 **** 0.06
30805 H 2.702075995865883 21.12939589219458 88.62535556378353 H 0.0 **** 0.06
30806 C 77.78613109716281 46.96330376918792 72.05744024900943 C 0.0 **** -0.24
30807 H 78.5443695301773 46.474505963102274 71.44667263516394 H 0.0 **** 0.06
30808 H 78.06574939663238 48.00542150371916 72.2167960948438 H 0.0 **** 0.06
30809 H 77.71306973237526 46.45649440360677 73.01949079231585 H 0.0 **** 0.06
30810 H 76.82409513894265 46.91881505524822 71.54794100910988 H 0.0 **** 0.06
30811 C 78.67743691522358 29.980683415923295 5.886648119494296 C 0.0 **** -0.24
30812 H 78.193622023216 30.674392360310605 5.198622647573245 H 0.0 **** 0.06
30813 H 79.23081061487301 30.544329107374267 6.638330297829839 H 0.0 **** 0.06
30814 H 79.36386888776804 29.34078216761236 5.333626048056942 H 0.0 **** 0.06
30815 H 77.9211728280479 29.367527477130864 6.3753364759429445 H 0.0 **** 0.06
30816 C 20.838022037634083 37.152475336217066 76.2343802401983 C 0.0 **** -0.24
30817 H 20.206138628793816 36.321959780933355 75.91669746937572 H 0.0 **** 0.06
30818 H 20.346830206320657 38.0950419851315 75.99320468420288 H 0.0 **** 0.06
30819 H 21.795631948574147 37.09784765619909 75.71565285803462 H 0.0 **** 0.06
30820 H 21.00379885880505 37.0923284690615 77.30962361525619 H 0.0 **** 0.06
30821 C 14.796993602357134 6.119348754207664 27.13706779958136 C 0.0 **** -0.24
30822 H 14.726136028868723 6.59512160480304 26.158769591340118 H 0.0 **** 0.06
30823 H 15.75361946104212 6.372107864905516 27.5958039355845 H 0.0 **** 0.06
30824 H 14.724275294228391 5.037958405250407 27.021335672575788 H 0.0 **** 0.06
30825 H 13.984836130558847 6.471909681960895 27.772022867589556 H 0.0 **** 0.06
30826 C 33.41209168833598 95.0672369522598 41.04654164479945 C 0.0 **** -0.24
30827 H 32.375628979367434 94.7340396618255 41.09852795657855 H 0.0 **** 0.06
30828 H 33.462562839309214 96.13244088917008 41.27576707244657 H 0.0 **** 0.06
30829 H 33.79988373135069 94.89267134736679 40.04268549268875 H 0.0 **** 0.06
30830 H 34.009038071642465 94.51043573244556 41.7693289042935 H 0.0 **** 0.06
30831 C 112.08969861061806 105.63561426424323 66.33290191753025 C 0.0 **** -0.24
30832 H 112.12769415321283 104.68426066602316 66.8645500125757 H 0.0 **** 0.06
30833 H 111.18060593631115 105.6814459862068 65.73345390843642 H 0.0 **** 0.06
30834 H 112.95951128119421 105.72160804417501 65.68147581572819 H 0.0 **** 0.06
30835 H 112.09325206845106 106.4543431013814 67.05258965520173 H 0.0 **** 0.06
30836 C 80.85091299310574 40.09718870894858 9.890578207560424 C 0.0 **** -0.24
30837 H 80.86326888716215 39.92995789298652 10.96809860795193 H 0.0 **** 0.06
30838 H 81.13326938398473 39.17668559424635 9.37795851430866 H 0.0 **** 0.06
30839 H 81.55818530258938 40.886609163175024 9.6377064040052 H 0.0 **** 0.06
30840 H 79.84906407747917 40.39301746191029 9.581343682836291 H 0.0 **** 0.06
30841 C 51.90639568102327 98.66268449145221 59.58421489744479 C 0.0 **** -0.24
30842 H 52.63711510139226 98.17019343980667 60.226150007623666 H 0.0 **** 0.06
30843 H 52.408144481014276 99.4129309139592 58.9727155608554 H 0.0 **** 0.06
30844 H 51.14846030971981 99.14485428149024 60.20143221789214 H 0.0 **** 0.06
30845 H 51.43321992030345 97.92350733591883 58.93845894534268 H 0.0 **** 0.06
30846 C 55.602615387203805 98.71402303894928 14.894103628446828 C 0.0 **** -0.24
30847 H 54.5946087279122 98.32416452902427 15.037414170652738 H 0.0 **** 0.06
30848 H 56.14996156083442 98.65916954639985 15.835922248922174 H 0.0 **** 0.06
30849 H 55.546820910210705 99.75134822066687 14.565990333612945 H 0.0 **** 0.06
30850 H 56.117450130976486 98.12083864563115 14.138833885897554 H 0.0 **** 0.06
30851 C 7.913793075566556 37.7187211111214 61.02892478390415 C 0.0 **** -0.24
30852 H 8.799963126977055 37.09894998022759 60.89221212664426 H 0.0 **** 0.06
30853 H 7.035337813543308 37.17958327347367 60.67489980484935 H 0.0 **** 0.06
30854 H 8.025807263404818 38.6427242665614 60.46226270030753 H 0.0 **** 0.06
30855 H 7.794993402310563 37.95407418394058 62.087292217087544 H 0.0 **** 0.06
30856 C 35.07898643690734 86.74106778394452 67.71927143728738 C 0.0 **** -0.24
30857 H 35.26810852917757 86.03022038907272 68.52395945709756 H 0.0 **** 0.06
30858 H 34.63857889585836 86.22014093386156 66.8695424587319 H 0.0 **** 0.06
30859 H 36.01843474214516 87.2038676742078 67.41562170843775 H 0.0 **** 0.06
30860 H 34.392014047546155 87.51189901725303 68.06973278981167 H 0.0 **** 0.06
30861 C 55.0992340514332 64.5061374367433 17.089885981612966 C 0.0 **** -0.24
30862 H 55.450813298551395 65.53741237663249 17.046537975921893 H 0.0 **** 0.06
30863 H 55.212948905277244 64.12590669569832 18.105650004101392 H 0.0 **** 0.06
30864 H 55.68436078216189 63.89429773905394 16.40407420129901 H 0.0 **** 0.06
30865 H 54.04769470806758 64.46911210502574 16.8033041169016 H 0.0 **** 0.06
30866 C 46.4329405226045 106.17044488815392 20.920228015245613 C 0.0 **** -0.24
30867 H 46.679910539776074 105.11397966902538 20.811103911655675 H 0.0 **** 0.06
30868 H 46.59541138845282 106.47633365470719 21.954111127883735 H 0.0 **** 0.06
30869 H 45.387348754182085 106.3275770903995 20.654039489736423 H 0.0 **** 0.06
30870 H 47.06831272494139 106.76184462312182 20.26119503860524 H 0.0 **** 0.06
30871 C 112.40473942178335 48.67740246417161 21.447459030847256 C 0.0 **** -0.24
30872 H 113.31684734000032 48.09356067529842 21.57338722192992 H 0.0 **** 0.06
30873 H 111.80824583693845 48.61949832734567 22.358404435541132 H 0.0 **** 0.06
30874 H 111.83035165396348 48.27868632852949 20.611605533884017 H 0.0 **** 0.06
30875 H 112.66354614062982 49.7167662067247 21.248110105330767 H 0.0 **** 0.06
30876 C 111.71950489628705 44.74667897812529 61.95258751293693 C 0.0 **** -0.24
30877 H 111.96389031858538 44.181198455284374 62.85196369922369 H 0.0 **** 0.06
30878 H 112.40323531576038 44.466665927691565 61.151835171637856 H 0.0 **** 0.06
30879 H 111.81543308990835 45.812898419469406 62.157996511295664 H 0.0 **** 0.06
30880 H 110.69540983178523 44.524892748992926 61.651696909078 H 0.0 **** 0.06
30881 C 81.95993066282665 105.67626660062277 38.60564508080749 C 0.0 **** -0.24
30882 H 81.31482612551213 105.659129326075 39.4838867305065 H 0.0 **** 0.06
30883 H 82.7291325812239 106.43845421819898 38.73560080467773 H 0.0 **** 0.06
30884 H 81.36485661952747 105.90733501569423 37.722556641183246 H 0.0 **** 0.06
30885 H 82.43090401259616 104.70131538940348 38.48133423170074 H 0.0 **** 0.06
30886 C 34.78069740118275 40.32719973781698 10.648682469114362 C 0.0 **** -0.24
30887 H 34.792188062462 40.96902127629775 11.528654596477082 H 0.0 **** 0.06
30888 H 34.681640887624326 40.939480080412096 9.752540998637244 H 0.0 **** 0.06
30889 H 33.93846209171136 39.637974209988954 10.712257934415334 H 0.0 **** 0.06
30890 H 35.7109857351318 39.760099388450925 10.600372547827021 H 0.0 **** 0.06
30891 C 41.84690951752272 29.028025229367394 35.320640279268886 C 0.0 **** -0.24
30892 H 41.70376989871106 28.252798147834277 34.5680142261716 H 0.0 **** 0.06
30893 H 41.43470990006128 29.96893676698381 34.95609135254199 H 0.0 **** 0.06
30894 H 42.91188980277528 29.149389492005227 35.51904058941682 H 0.0 **** 0.06
30895 H 41.336572035196994 28.73975284225473 36.240423804936796 H 0.0 **** 0.06
30896 C 60.51348206198552 76.63904148644517 110.2080430031697 C 0.0 **** -0.24
30897 H 59.53000199154423 76.32458856727368 110.5576417607834 H 0.0 **** 0.06
30898 H 61.02558120188892 75.79009005632082 109.75359940313425 H 0.0 **** 0.06
30899 H 61.097964397097535 77.00720047294786 111.05130235488942 H 0.0 **** 0.06
30900 H 60.39991892451615 77.4330788054873 109.47020081295176 H 0.0 **** 0.06
30901 C 79.00965508629474 18.26946199600951 107.1295168504048 C 0.0 **** -0.24
30902 H 79.68346032557466 17.419243684029084 107.0329188315003 H 0.0 **** 0.06
30903 H 79.14061298938253 18.93601670852945 106.2769226777906 H 0.0 **** 0.06
30904 H 79.23567031401086 18.808706428561607 108.05040209203267 H 0.0 **** 0.06
30905 H 77.97948317953353 17.915422369945617 107.15962858045856 H 0.0 **** 0.06
30906 C 60.579229058083776 63.956370236095125 102.43862419923656 C 0.0 **** -0.24
30907 H 60.0560409545805 64.1388484490592 101.49952946330694 H 0.0 **** 0.06
30908 H 61.03149594566067 62.964963018026026 102.41484711723442 H 0.0 **** 0.06
30909 H 59.87038628096267 64.01389604499587 103.26561558709858 H 0.0 **** 0.06
30910 H 61.35587428613092 64.70865733419649 102.57380273126662 H 0.0 **** 0.06
30911 C 76.40836786171468 63.2772934891596 6.350147407342845 C 0.0 **** -0.24
30912 H 75.48045692754249 62.93458375030274 5.890813784600169 H 0.0 **** 0.06
30913 H 77.25028547239987 63.00409973991187 5.714421170068377 H 0.0 **** 0.06
30914 H 76.52359311027249 62.81047374246169 7.328020299184132 H 0.0 **** 0.06
30915 H 76.37693137504147 64.36168492140777 6.466169236954812 H 0.0 **** 0.06
30916 C 113.36045974675221 87.53323984345616 16.468932893942256 C 0.0 **** -0.24
30917 H 112.85708242564004 88.10602636342716 15.689458137686536 H 0.0 **** 0.06
30918 H 112.64140370823593 86.87381624833702 16.954835038364752 H 0.0 **** 0.06
30919 H 113.78361017930769 88.21626555021018 17.20480346789495 H 0.0 **** 0.06
30920 H 114.15826934986963 86.93839703812006 16.02409714219109 H 0.0 **** 0.06
30921 C 72.71491218306079 79.9677235845297 14.93237434666105 C 0.0 **** -0.24
30922 H 73.37731945170043 80.31865821072572 15.72387133432602 H 0.0 **** 0.06
30923 H 73.13848909184588 80.2290976704144 13.962124784024468 H 0.0 **** 0.06
30924 H 71.73812228437993 80.43866146237934 15.04067460929906 H 0.0 **** 0.06
30925 H 72.60696344605623 78.88562269679062 15.002457651658176 H 0.0 **** 0.06
30926 C 55.190514344591264 37.23328011192214 86.75194210507826 C 0.0 **** -0.24
30927 H 55.761502424371656 37.077106320283974 87.66731762257709 H 0.0 **** 0.06
30928 H 54.59225499954792 38.140167887958285 86.84768324385459 H 0.0 **** 0.06
30929 H 54.533230648028336 36.379984806994145 86.58421840494267 H 0.0 **** 0.06
30930 H 55.8749820501032 37.335804942403115 85.90995957841596 H 0.0 **** 0.06
30931 C 84.247413362105 108.8023769619792 66.6040711368583 C 0.0 **** -0.24
30932 H 83.57845143173316 108.92686310878881 67.45524565806812 H 0.0 **** 0.06
30933 H 84.48046099804392 107.74442622991063 66.47709040753551 H 0.0 **** 0.06
30934 H 85.16800452801073 109.35822178154666 66.78168983278385 H 0.0 **** 0.06
30935 H 83.7637695065794 109.17851279507465 65.70311366618199 H 0.0 **** 0.06
30936 C 8.573838740484405 20.955576359332554 52.65857616204707 C 0.0 **** -0.24
30937 H 8.46910685214202 21.817611657065584 53.317058749036725 H 0.0 **** 0.06
30938 H 8.573549878250361 20.0418249901349 53.253566386008934 H 0.0 **** 0.06
30939 H 9.512720631944646 21.030877964583823 52.10906320743378 H 0.0 **** 0.06
30940 H 7.741976638099928 20.93293107160065 51.95567466799724 H 0.0 **** 0.06
30941 C 30.571274455533135 40.28653846520791 46.132651425375876 C 0.0 **** -0.24
30942 H 30.85795559743046 41.01666400543999 46.88911527057087 H 0.0 **** 0.06
30943 H 29.915463742514028 39.53848910918019 46.57883465254584 H 0.0 **** 0.06
30944 H 31.464988455794362 39.79943616515324 45.74111640854888 H 0.0 **** 0.06
30945 H 30.047541879261168 40.79137337736154 45.32042675852302 H 0.0 **** 0.06
30946 C 67.77150933148087 80.55877158049447 82.15580804602666 C 0.0 **** -0.24
30947 H 68.63916631754026 80.48388070035028 81.49926958115827 H 0.0 **** 0.06
30948 H 66.91866658342036 80.93356063413526 81.58927877408394 H 0.0 **** 0.06
30949 H 67.9933236853253 81.24278465077043 82.97485289597091 H 0.0 **** 0.06
30950 H 67.53521891764618 79.57331200078215 82.55825340897889 H 0.0 **** 0.06
30951 C 61.9385579516902 66.73024419040416 68.59601820260761 C 0.0 **** -0.24
30952 H 61.43386775246378 66.58229305636169 69.549941229435 H 0.0 **** 0.06
30953 H 61.60098829836298 65.97652813598992 67.88505282403776 H 0.0 **** 0.06
30954 H 63.015925245808745 66.6396238863781 68.73703834630862 H 0.0 **** 0.06
30955 H 61.704646808911065 67.7231812239732 68.21242392295954 H 0.0 **** 0.06
30956 C 58.25088775552325 40.34586934570315 5.431614811470865 C 0.0 **** -0.24
30957 H 57.980056979877475 39.966416495859534 4.446240160754286 H 0.0 **** 0.06
30958 H 57.66899489365761 39.82552426022507 6.1930895112671465 H 0.0 **** 0.06
30959 H 58.0399146028941 41.41423400195932 5.4787450272189915 H 0.0 **** 0.06
30960 H 59.31365991964259 40.176763241563656 5.6061812580148 H 0.0 **** 0.06
30961 C 70.0144485740096 32.62653646313387 36.64426198238348 C 0.0 **** -0.24
30962 H 70.39007729398085 33.39503341763765 37.319591857891595 H 0.0 **** 0.06
30963 H 70.79835483598205 31.893231646996064 36.45541025967552 H 0.0 **** 0.06
30964 H 69.71289721953906 33.08695450494003 35.702598527433935 H 0.0 **** 0.06
30965 H 69.15542985291935 32.13257938876817 37.09835361518299 H 0.0 **** 0.06
30966 C 30.319826884391965 44.48309871595984 95.76592124677376 C 0.0 **** -0.24
30967 H 30.531394369186373 44.9954720029198 96.70510379129757 H 0.0 **** 0.06
30968 H 30.655338547926092 43.44808503443505 95.83369724624907 H 0.0 **** 0.06
30969 H 30.84639473907965 44.98320401259946 94.95340914214074 H 0.0 **** 0.06
30970 H 29.247131141209707 44.506416390430616 95.57305053291628 H 0.0 **** 0.06
30971 C 72.67280037098828 73.28455126517844 19.866234654896484 C 0.0 **** -0.24
30972 H 72.81714086021742 72.2853875196131 20.279150734166546 H 0.0 **** 0.06
30973 H 71.99801454396703 73.23065736517248 19.012090356149614 H 0.0 **** 0.06
30974 H 73.63503767513177 73.68612960215802 19.546009314904627 H 0.0 **** 0.06
30975 H 72.24376386708579 73.93394634982963 20.62871981114061 H 0.0 **** 0.06
30976 C 68.26699652645158 44.839430746615335 2.0479458909734447 C 0.0 **** -0.24
30977 H 68.6531435396804 43.94564821160782 2.537363089054029 H 0.0 **** 0.06
30978 H 68.83068939629746 45.710026409302884 2.3827540260642444 H 0.0 **** 0.06
30979 H 67.21509779085392 44.966536664896694 2.3036861846571757 H 0.0 **** 0.06
30980 H 68.36825340636449 44.73330573082876 0.9672796320029526 H 0.0 **** 0.06
30981 C 53.571592318488385 101.86150523757158 15.964835119819067 C 0.0 **** -0.24
30982 H 54.634710776962 101.62772728924938 15.91307657029234 H 0.0 **** 0.06
30983 H 52.995224970036865 100.93676328469166 15.939340819016202 H 0.0 **** 0.06
30984 H 53.29444754935214 102.48623873694328 15.116132724380055 H 0.0 **** 0.06
30985 H 53.362631921489815 102.39572502614908 16.89263296283679 H 0.0 **** 0.06
30986 C 89.45898546777312 102.34718634476644 51.93136355347454 C 0.0 **** -0.24
30987 H 88.38869213598306 102.50362539475643 52.06626343650095 H 0.0 **** 0.06
30988 H 89.85142359904071 101.77993899710066 52.77586860088064 H 0.0 **** 0.06
30989 H 89.96202572155494 103.31193942187974 51.874778179479165 H 0.0 **** 0.06
30990 H 89.63147116258224 101.79248359194571 51.00856424768574 H 0.0 **** 0.06
30991 C 109.08261742779297 61.53984223614998 32.14542570364071 C 0.0 **** -0.24
30992 H 108.88757673531569 60.77689937198315 32.89932244833321 H 0.0 **** 0.06
30993 H 108.26640764628797 61.55380933484835 31.42270202613699 H 0.0 **** 0.06
30994 H 110.01830383887818 61.3138318446166 31.63386219925937 H 0.0 **** 0.06
30995 H 109.15811164705644 62.51490928611224 32.627226351560665 H 0.0 **** 0.06
30996 C 44.91213967927487 8.394905882036745 97.00773075800271 C 0.0 **** -0.24
30997 H 45.112317621941685 7.767892136272813 96.13953869761741 H 0.0 **** 0.06
30998 H 44.63596952814868 9.396038065078184 96.67727297882197 H 0.0 **** 0.06
30999 H 45.80577754434461 8.450553084727588 97.62928100927076 H 0.0 **** 0.06
31000 H 44.09447762501904 7.963991466949668 97.58565506621915 H 0.0 **** 0.06
31001 C 57.99849693713342 112.55179926710434 34.792414534455304 C 0.0 **** -0.24
31002 H 58.76027911731956 112.12185834739171 34.14249942556228 H 0.0 **** 0.06
31003 H 58.37847177468661 112.60204687795272 35.8141857560978 H 0.0 **** 0.06
31004 H 57.10535096799715 111.92737434738788 34.76743913237448 H 0.0 **** 0.06
31005 H 57.750082289368585 113.55561397506696 34.4477405390366 H 0.0 **** 0.06
31006 C 112.39735255922012 76.25819883532961 33.52678984339278 C 0.0 **** -0.24
31007 H 111.42154872485001 76.42333240379605 33.0705950208588 H 0.0 **** 0.06
31008 H 112.48074612199376 75.21673436174922 33.83948186972975 H 0.0 **** 0.06
31009 H 112.50737804135468 76.90798825090616 34.394525994109415 H 0.0 **** 0.06
31010 H 113.17945122240569 76.48410764329378 32.801836833517626 H 0.0 **** 0.06
31011 C 24.15613231537189 96.8735925379618 68.85255355443385 C 0.0 **** -0.24
31012 H 24.504086775198857 97.79497670374343 68.38689831087979 H 0.0 **** 0.06
31013 H 24.223694972785893 96.05583823745442 68.13343097005537 H 0.0 **** 0.06
31014 H 23.120607202157927 96.99428494000563 69.16920950965132 H 0.0 **** 0.06
31015 H 24.777904032273796 96.64748828855122 69.71902789846689 H 0.0 **** 0.06
31016 C 57.02963226887659 87.10780077508136 99.23309125983386 C 0.0 **** -0.24
31017 H 57.265527447313225 87.69365525036 100.12143970495185 H 0.0 **** 0.06
31018 H 57.396169550953594 87.62802239736297 98.34671210980835 H 0.0 **** 0.06
31019 H 55.94961910365581 86.97913932501766 99.15860109694546 H 0.0 **** 0.06
31020 H 57.5079120186553 86.13136294079663 99.3048656103579 H 0.0 **** 0.06
31021 C 107.16627702613604 46.42269989836516 15.32077319101424 C 0.0 **** -0.24
31022 H 106.32212917524959 47.10278370681946 15.438431311805147 H 0.0 **** 0.06
31023 H 106.96304163322071 45.72944917074421 14.503761046126044 H 0.0 **** 0.06
31024 H 107.3119135156569 45.86278108734321 16.244997703854096 H 0.0 **** 0.06
31025 H 108.06510265569923 46.99527134582981 15.096353330845204 H 0.0 **** 0.06
31026 C 49.29403024163975 91.12691082159733 15.21161546557667 C 0.0 **** -0.24
31027 H 49.35140695500145 90.51077885306313 14.313732213932127 H 0.0 **** 0.06
31028 H 49.190038482508605 92.17376236844589 14.926858550734806 H 0.0 **** 0.06
31029 H 50.20313103612989 90.9974563430714 15.799058450795854 H 0.0 **** 0.06
31030 H 48.432032416673074 90.82276189058888 15.80447892436618 H 0.0 **** 0.06
31031 C 89.27286993829773 67.29988738664852 92.67355597118336 C 0.0 **** -0.24
31032 H 89.83414255786235 66.40573738216386 92.40192056529168 H 0.0 **** 0.06
31033 H 89.78817773791366 67.81955699655862 93.48209750084447 H 0.0 **** 0.06
31034 H 88.27344930092556 67.01508760694915 93.00267821337991 H 0.0 **** 0.06
31035 H 89.19717282915573 67.95867853073938 91.8083160291518 H 0.0 **** 0.06
31036 C 0.25658966510742687 33.498944207478644 67.5050910820326 C 0.0 **** -0.24
31037 H 0.7301636543195684 32.99035502756769 68.34471223248141 H 0.0 **** 0.06
31038 H -0.39507325681422856 32.80095489238796 66.97796262400121 H 0.0 **** 0.06
31039 H 1.023647134146941 33.86521056031111 66.82298423880903 H 0.0 **** 0.06
31040 H -0.332829434946305 34.33836997261392 67.87481193867063 H 0.0 **** 0.06
31041 C 95.17446592947363 56.73461220226064 49.118162416571806 C 0.0 **** -0.24
31042 H 95.22940492278565 57.09980081357103 48.091857860337285 H 0.0 **** 0.06
31043 H 95.32093439360202 57.565944428687466 49.806908099634796 H 0.0 **** 0.06
31044 H 95.95009874658604 55.98705220877195 49.279130281223914 H 0.0 **** 0.06
31045 H 94.19506675200304 56.28640457641712 49.29116603857645 H 0.0 **** 0.06
31046 C 7.76320541595986 96.36207935554671 28.47286101429895 C 0.0 **** -0.24
31047 H 8.505769783619158 96.48049072570322 29.26220561265439 H 0.0 **** 0.06
31048 H 7.689935088541517 95.30954781613639 28.198897893917398 H 0.0 **** 0.06
31049 H 8.062416656651408 96.94521981852498 27.601940927284424 H 0.0 **** 0.06
31050 H 6.7951933459656 96.71269073590955 28.830770578272293 H 0.0 **** 0.06
31051 C 65.78926947316134 55.14739917975487 21.529072817823163 C 0.0 **** -0.24
31052 H 64.9542936529972 55.77359938090183 21.84130762947308 H 0.0 **** 0.06
31053 H 65.4150154374133 54.31176640112284 20.936830638369486 H 0.0 **** 0.06
31054 H 66.30679342539216 54.76575604383382 22.40959282402443 H 0.0 **** 0.06
31055 H 66.48194561440519 55.738274907048435 20.928423421694617 H 0.0 **** 0.06
31056 C 61.35267291409707 33.72089025571654 87.60945966477888 C 0.0 **** -0.24
31057 H 61.54945587925971 34.46388539754497 86.83717306236943 H 0.0 **** 0.06
31058 H 62.29782717980552 33.36035085869298 88.0158064884238 H 0.0 **** 0.06
31059 H 60.799021303423416 32.8867489142533 87.17883562713735 H 0.0 **** 0.06
31060 H 60.76326146988484 34.17422133752922 88.40744659298454 H 0.0 **** 0.06
31061 C 75.64126996412475 17.00072964305207 5.945356159092995 C 0.0 **** -0.24
31062 H 74.58484287924372 17.102523209283902 6.197778357840207 H 0.0 **** 0.06
31063 H 75.77329096460545 17.141939533780146 4.872935929014972 H 0.0 **** 0.06
31064 H 75.98834984282198 16.00715462529297 6.227221639776843 H 0.0 **** 0.06
31065 H 76.21631446487072 17.753920336633144 6.484879672951905 H 0.0 **** 0.06
31066 C 32.80828418378863 113.1872479519083 46.9506600059203 C 0.0 **** -0.24
31067 H 31.750753814921666 113.31375101597014 46.721973810702025 H 0.0 **** 0.06
31068 H 33.39192197214274 113.92080660332029 46.393406320274394 H 0.0 **** 0.06
31069 H 33.12357263845669 112.18237358093779 46.669472057165706 H 0.0 **** 0.06
31070 H 32.96868610881464 113.33253796703823 48.01991868285468 H 0.0 **** 0.06
31071 C 91.25528311108951 86.8091286280376 75.49534088471194 C 0.0 **** -0.24
31072 H 91.66243178757324 87.0633144055459 74.51675235728874 H 0.0 **** 0.06
31073 H 90.31129389472954 86.2778887487828 75.36883560060164 H 0.0 **** 0.06
31074 H 91.08566101047344 87.72193838757084 76.06530542626302 H 0.0 **** 0.06
31075 H 91.96175170256959 86.17340725920545 76.02823429264521 H 0.0 **** 0.06
31076 C 66.14131589021079 64.23535919402312 27.861512860340838 C 0.0 **** -0.24
31077 H 65.90154792627689 65.29761929456797 27.84911738734104 H 0.0 **** 0.06
31078 H 67.08981455402838 64.0702789585699 27.34957358954074 H 0.0 **** 0.06
31079 H 65.35242332050436 63.67911564749483 27.354052848430285 H 0.0 **** 0.06
31080 H 66.22127838430632 63.8927159237114 28.893523808550867 H 0.0 **** 0.06
31081 C 35.88697517859222 61.32327757166712 97.06839588802922 C 0.0 **** -0.24
31082 H 34.8201298412082 61.16059574826454 96.91738073424258 H 0.0 **** 0.06
31083 H 36.24022632493805 60.687247326674026 97.87996480830219 H 0.0 **** 0.06
31084 H 36.06292361630307 62.36906773676466 97.32232521265178 H 0.0 **** 0.06
31085 H 36.42468521133236 61.077449125920964 96.15271512634979 H 0.0 **** 0.06
31086 C 66.04497070321943 41.38945549707074 34.58361353765058 C 0.0 **** -0.24
31087 H 65.692970825891 40.67253307707227 33.84057019759659 H 0.0 **** 0.06
31088 H 66.1500079112626 40.89073944080363 35.548029188056844 H 0.0 **** 0.06
31089 H 65.32587894482117 42.20325502490195 34.672017627560614 H 0.0 **** 0.06
31090 H 67.01005689168687 41.78907346990866 34.273476404078366 H 0.0 **** 0.06
31091 C 39.29297650587026 31.730673130980023 85.55067059212101 C 0.0 **** -0.24
31092 H 39.00514196754378 30.90995012394356 86.20867368104732 H 0.0 **** 0.06
31093 H 38.51355501523406 31.88958095217569 84.8053851332314 H 0.0 **** 0.06
31094 H 40.22982757640517 31.48386646156169 85.05105622928892 H 0.0 **** 0.06
31095 H 39.424419245706844 32.63826016554793 86.13953010462546 H 0.0 **** 0.06
31096 C 97.9635795253308 4.739537900558389 102.14403057912065 C 0.0 **** -0.24
31097 H 97.94410803327798 3.999124044433458 102.94355677152734 H 0.0 **** 0.06
31098 H 98.97474416335174 5.1336673634956895 102.03830897850625 H 0.0 **** 0.06
31099 H 97.27900233117651 5.553355979185014 102.38636971472519 H 0.0 **** 0.06
31100 H 97.6546998693166 4.272994109506115 101.20884065822807 H 0.0 **** 0.06
31101 C 19.227806057038748 72.68957222147662 48.35951535852931 C 0.0 **** -0.24
31102 H 19.55696475134775 73.72076763629377 48.483331649933405 H 0.0 **** 0.06
31103 H 18.992417207006348 72.50687946205812 47.310608564895944 H 0.0 **** 0.06
31104 H 18.339297789709885 72.51563086472461 48.96614572818018 H 0.0 **** 0.06
31105 H 20.02290947862326 72.01409916876804 48.676957848389264 H 0.0 **** 0.06
31106 C 101.57781363171293 88.079880807204 0.27287024532196824 C 0.0 **** -0.24
31107 H 102.02324090861228 87.92620635760167 -0.7103233795410517 H 0.0 **** 0.06
31108 H 102.31585284522757 88.52657565430948 0.938849057767186 H 0.0 **** 0.06
31109 H 101.25591621865257 87.12058659169062 0.6789683468861512 H 0.0 **** 0.06
31110 H 100.71875766238145 88.74402653169719 0.18221035302602218 H 0.0 **** 0.06
31111 C 16.49816803573998 20.959321005563254 14.138465328486063 C 0.0 **** -0.24
31112 H 17.024466133356555 21.86602393038035 14.43682934260687 H 0.0 **** 0.06
31113 H 15.536879953304407 20.912776405890213 14.65109174387149 H 0.0 **** 0.06
31114 H 17.09618145045161 20.088474784495133 14.40711897940794 H 0.0 **** 0.06
31115 H 16.336562457941824 20.97093670708071 13.061297009489905 H 0.0 **** 0.06
31116 C 92.04942838970231 111.49451918060669 112.8424427150435 C 0.0 **** -0.24
31117 H 92.95704582779405 111.42518108244577 113.4428041330483 H 0.0 **** 0.06
31118 H 92.20704401920813 110.99214300099418 111.88747385906028 H 0.0 **** 0.06
31119 H 91.81067108929057 112.54345343592801 112.66673600764891 H 0.0 **** 0.06
31120 H 91.22572392436666 111.01785420061191 113.37264582811476 H 0.0 **** 0.06
31121 C 108.46191276865657 26.259479685489453 8.693308837223498 C 0.0 **** -0.24
31122 H 107.91906819656583 26.349342173134517 7.752340467157239 H 0.0 **** 0.06
31123 H 108.83152565204628 27.240325889705446 8.994186003342989 H 0.0 **** 0.06
31124 H 109.30301217464428 25.57737436620357 8.563681794707207 H 0.0 **** 0.06
31125 H 107.79400554673612 25.870506305230947 9.461662660805999 H 0.0 **** 0.06
31126 C 85.62125858593626 82.76457314029471 43.087893137799526 C 0.0 **** -0.24
31127 H 84.92999367864118 83.13264546362922 42.330049795278796 H 0.0 **** 0.06
31128 H 86.4827310763186 82.30564017652154 42.60140703829923 H 0.0 **** 0.06
31129 H 85.11815322504984 82.02388508471142 43.709739730035835 H 0.0 **** 0.06
31130 H 85.95498574087534 83.59502228580808 43.70932560841989 H 0.0 **** 0.06
31131 C 114.36181025020399 1.5604430346127227 96.81983205879959 C 0.0 **** -0.24
31132 H 113.99832310295419 2.5843871627363804 96.72823766961062 H 0.0 **** 0.06
31133 H 113.96413136726237 0.9596739055915418 96.00172635632401 H 0.0 **** 0.06
31134 H 114.03345948715462 1.1425699029598029 97.77167543194366 H 0.0 **** 0.06
31135 H 115.45117316144436 1.557960010613268 96.77786457928991 H 0.0 **** 0.06
31136 C 10.539874510768925 5.885853384633371 106.2003970194393 C 0.0 **** -0.24
31137 H 9.739511270135928 5.227572425231889 105.86198329876296 H 0.0 **** 0.06
31138 H 11.474892203992713 5.5975722969326185 105.7181533063777 H 0.0 **** 0.06
31139 H 10.647536602195917 5.800114398083174 107.28210710994114 H 0.0 **** 0.06
31140 H 10.298938935339084 6.916214685983428 105.93991943889003 H 0.0 **** 0.06
31141 C 3.403548834793815 28.57982513989515 42.527509387702366 C 0.0 **** -0.24
31142 H 4.270567416845811 28.16375259420755 42.01314331545717 H 0.0 **** 0.06
31143 H 3.2564541550611015 28.056325270655748 43.47229773418724 H 0.0 **** 0.06
31144 H 2.518169276800915 28.456682067690735 41.902730336171174 H 0.0 **** 0.06
31145 H 3.568360651661248 29.63919873989363 42.720311149019324 H 0.0 **** 0.06
31146 C 105.02937795224156 67.0828976529383 107.46189515290706 C 0.0 **** -0.24
31147 H 105.78724656530332 66.64719687372522 106.81012908011249 H 0.0 **** 0.06
31148 H 105.321305613318 68.09853982065025 107.72934646343052 H 0.0 **** 0.06
31149 H 104.93812372524647 66.4804679938797 108.36542993886724 H 0.0 **** 0.06
31150 H 104.07197302143487 67.1045406858357 106.94126347347648 H 0.0 **** 0.06
31151 C 50.36405396282238 60.118557754957926 1.0529173127152376 C 0.0 **** -0.24
31152 H 50.18403230856478 60.71579252691256 0.1589649622582101 H 0.0 **** 0.06
31153 H 49.410131733213746 59.79912925775444 1.4737258643958455 H 0.0 **** 0.06
31154 H 50.90273859708469 60.71812176892417 1.786961483795693 H 0.0 **** 0.06
31155 H 50.95788631381882 59.243800725818026 0.7909513817579636 H 0.0 **** 0.06
31156 C 44.451089294883445 114.55038882970226 39.11639919093196 C 0.0 **** -0.24
31157 H 43.63703667568012 115.24351919355539 38.90633361302375 H 0.0 **** 0.06
31158 H 44.05416851883746 113.66405191951418 39.613079012081926 H 0.0 **** 0.06
31159 H 45.182778492983545 115.03361107554815 39.76419944401752 H 0.0 **** 0.06
31160 H 44.92958160014214 114.25854550132709 38.181803277490246 H 0.0 **** 0.06
31161 C 87.82180925397424 41.531611085718566 21.064369754972432 C 0.0 **** -0.24
31162 H 87.15634569901712 40.888480854979235 20.48934221538616 H 0.0 **** 0.06
31163 H 87.42801420541349 42.548232420587595 21.07154735795777 H 0.0 **** 0.06
31164 H 88.81258092459052 41.527882152580986 20.610295376720302 H 0.0 **** 0.06
31165 H 87.88968879579514 41.16138881032151 22.087485495908936 H 0.0 **** 0.06
31166 C 66.53744840515853 74.35023422541767 35.09422870511116 C 0.0 **** -0.24
31167 H 66.56931148275069 73.72752104972656 34.200618071018084 H 0.0 **** 0.06
31168 H 65.55552930793118 74.26485254565361 35.560949059353334 H 0.0 **** 0.06
31169 H 66.72057927417308 75.38927496304348 34.81849974842851 H 0.0 **** 0.06
31170 H 67.30382200389585 74.01948273617714 35.795560262333595 H 0.0 **** 0.06
31171 C 92.74092742809052 2.318875256257769 36.04314322629514 C 0.0 **** -0.24
31172 H 93.48063426402683 1.7467214700241556 35.48332915329303 H 0.0 **** 0.06
31173 H 92.82541017838093 3.374024192752046 35.78309255426883 H 0.0 **** 0.06
31174 H 92.91646257406819 2.1920030811158426 37.11107617719365 H 0.0 **** 0.06
31175 H 91.74168649922098 1.9605207328643814 35.79418818620712 H 0.0 **** 0.06
31176 C 61.54501418578584 7.8352337496607305 20.727832547252746 C 0.0 **** -0.24
31177 H 60.728156581890254 7.286172275699897 21.196542624088238 H 0.0 **** 0.06
31178 H 61.67790572792074 7.4842420169814545 19.70456347356236 H 0.0 **** 0.06
31179 H 62.4631583598833 7.6732573355701845 21.29168432481771 H 0.0 **** 0.06
31180 H 61.307618695102626 8.899818408439572 20.718191565450013 H 0.0 **** 0.06
31181 C 87.56572669298185 106.89192478535375 91.27879597916626 C 0.0 **** -0.24
31182 H 87.69920418140305 106.9992075879303 90.20245025833975 H 0.0 **** 0.06
31183 H 88.15348422145755 106.04573440696163 91.63470734514158 H 0.0 **** 0.06
31184 H 86.51199725082722 106.72183504140028 91.49918811218859 H 0.0 **** 0.06
31185 H 87.89921705032685 107.8025280218661 91.77764260869824 H 0.0 **** 0.06
31186 C 92.50206887152098 114.03112773175052 106.96015025888437 C 0.0 **** -0.24
31187 H 91.67686871546238 114.56797406310595 107.42969447720148 H 0.0 **** 0.06
31188 H 92.34778661465242 114.00006008138506 105.88132924416223 H 0.0 **** 0.06
31189 H 92.54420173242659 113.0153349119562 107.35193167311903 H 0.0 **** 0.06
31190 H 93.43942598440714 114.54450429455724 107.17894748678756 H 0.0 **** 0.06
31191 C 112.69931306628328 34.5922175291619 66.01104194259227 C 0.0 **** -0.24
31192 H 113.37454926412352 34.12166973221887 66.7263257077604 H 0.0 **** 0.06
31193 H 111.99137801259812 33.85187586862889 65.63883617419435 H 0.0 **** 0.06
31194 H 113.27700045875733 34.99457543163063 65.17849861197607 H 0.0 **** 0.06
31195 H 112.15720527437867 35.400293726757525 66.50208670608566 H 0.0 **** 0.06
31196 C 107.06994100878762 33.93608940967198 22.651175494930786 C 0.0 **** -0.24
31197 H 107.8170778491355 33.462506278961826 23.28769768574544 H 0.0 **** 0.06
31198 H 107.36492376544831 33.833309802295446 21.606185745344636 H 0.0 **** 0.06
31199 H 106.99315799759091 34.99275331473876 22.90598460624708 H 0.0 **** 0.06
31200 H 106.10336523701096 33.454578903097 22.804879659325948 H 0.0 **** 0.06
31201 C 67.06392722843259 37.37635155072688 92.45994944277271 C 0.0 **** -0.24
31202 H 67.18682552473496 38.18889412081161 91.74334593368684 H 0.0 **** 0.06
31203 H 67.98594939880616 36.79676860934002 92.51287145706434 H 0.0 **** 0.06
31204 H 66.24540697979768 36.73158912429497 92.14027934944193 H 0.0 **** 0.06
31205 H 66.83819555878969 37.7910661028842 93.44226405948118 H 0.0 **** 0.06
31206 C 82.56231681748335 10.082198740543447 25.129324469896574 C 0.0 **** -0.24
31207 H 82.1267229938683 9.08379247058545 25.172137118748935 H 0.0 **** 0.06
31208 H 81.79576100566948 10.80100095847223 24.839285607281965 H 0.0 **** 0.06
31209 H 83.36973660270564 10.096520022836643 24.397425474484805 H 0.0 **** 0.06
31210 H 82.95743706966772 10.348044078037248 26.11080158300439 H 0.0 **** 0.06
31211 C 107.55684875893508 103.24926297732964 72.80439596184726 C 0.0 **** -0.24
31212 H 108.25284868994802 103.24288321644377 73.64397111153124 H 0.0 **** 0.06
31213 H 107.1893603671196 102.2377222232574 72.6295343229421 H 0.0 **** 0.06
31214 H 108.06729863346246 103.61002042620296 71.91205472180769 H 0.0 **** 0.06
31215 H 106.71750331669571 103.90615695333526 73.03421010435306 H 0.0 **** 0.06
31216 C 17.225674841119698 25.87974732456307 25.517544443714854 C 0.0 **** -0.24
31217 H 18.248429021371408 26.22767678389998 25.66205027501462 H 0.0 **** 0.06
31218 H 17.110942385671223 24.89232363772868 25.967186547963223 H 0.0 **** 0.06
31219 H 17.009105954677224 25.82083589139023 24.45076923685724 H 0.0 **** 0.06
31220 H 16.534491740938705 26.576071300632606 25.990942507336314 H 0.0 **** 0.06
31221 C 103.73738148963733 83.89997495846094 7.2366489389618405 C 0.0 **** -0.24
31222 H 102.91975204709325 83.5185477781308 6.6254580240136995 H 0.0 **** 0.06
31223 H 103.63026239423957 83.53276494560089 8.256990661730278 H 0.0 **** 0.06
31224 H 103.71267909827046 84.99000887585052 7.238338853499377 H 0.0 **** 0.06
31225 H 104.68732710036656 83.55860984734662 6.824483676304453 H 0.0 **** 0.06
31226 C 57.657341362524505 103.93170571468318 33.76091341859954 C 0.0 **** -0.24
31227 H 57.081006500755166 104.76083766938922 34.17109055155477 H 0.0 **** 0.06
31228 H 57.83236966958026 104.10072968365114 32.69872044295633 H 0.0 **** 0.06
31229 H 57.10223710277404 103.00259130936061 33.89494222440604 H 0.0 **** 0.06
31230 H 58.61248920336601 103.86197244125856 34.28061120467268 H 0.0 **** 0.06
31231 C 79.1485047134353 83.2626258098432 36.874234683906224 C 0.0 **** -0.24
31232 H 79.23175024348879 84.3487498573073 36.90874094635768 H 0.0 **** 0.06
31233 H 78.10970303590926 82.98371088227375 36.69823329116083 H 0.0 **** 0.06
31234 H 79.48270683071914 82.8423656048991 37.823392908106 H 0.0 **** 0.06
31235 H 79.77141444701954 82.87643815449687 36.066592682921396 H 0.0 **** 0.06
31236 C 100.58733943810063 96.10019177906705 109.73586798121582 C 0.0 **** -0.24
31237 H 100.26743157799763 95.1252519620295 109.36796271445823 H 0.0 **** 0.06
31238 H 99.97942542402822 96.8801305531583 109.27605161062547 H 0.0 **** 0.06
31239 H 101.63546918077662 96.25796346562362 109.48049543685744 H 0.0 **** 0.06
31240 H 100.46799544715893 96.13638648547541 110.81893859244971 H 0.0 **** 0.06
31241 C 4.231589236045181 54.48894808334617 72.74062766084475 C 0.0 **** -0.24
31242 H 3.489893591867002 55.098632055133834 72.22426731022748 H 0.0 **** 0.06
31243 H 3.724486547037145 53.74643866490672 73.3573785305536 H 0.0 **** 0.06
31244 H 4.849339257541743 55.12683765875238 73.372840261243 H 0.0 **** 0.06
31245 H 4.860492174399724 53.98348011829745 72.00754020701893 H 0.0 **** 0.06
31246 C 108.15595977518024 40.46727091157808 24.108175731277953 C 0.0 **** -0.24
31247 H 108.51453669518592 41.29654478559598 24.716874608573193 H 0.0 **** 0.06
31248 H 108.17619130210485 39.5496698870906 24.69593928644403 H 0.0 **** 0.06
31249 H 108.79881035195424 40.3538155707387 23.2339983377895 H 0.0 **** 0.06
31250 H 107.13480602855284 40.669220056952234 23.78349961100207 H 0.0 **** 0.06
31251 C 26.146796513519575 17.64288915983489 62.38961165820849 C 0.0 **** -0.24
31252 H 25.360881198146245 17.040152814669174 61.935105390574215 H 0.0 **** 0.06
31253 H 25.944729552547983 17.760488913116802 63.454936628458846 H 0.0 **** 0.06
31254 H 26.172110011642047 18.62345756377096 61.91432985324828 H 0.0 **** 0.06
31255 H 27.10883902426943 17.14869891348175 62.253817040224256 H 0.0 **** 0.06
31256 C 95.84375066755098 84.82683773977271 74.95247516593207 C 0.0 **** -0.24
31257 H 96.22432449718812 85.12704433201512 73.9755854098949 H 0.0 **** 0.06
31258 H 95.15540673227636 83.99057758482027 74.83187449630958 H 0.0 **** 0.06
31259 H 95.32197455249715 85.66584956310783 75.41146398859294 H 0.0 **** 0.06
31260 H 96.676141358769 84.52457800036512 75.58807469340124 H 0.0 **** 0.06
31261 C 30.907707060317946 60.607683668461526 20.569375774606613 C 0.0 **** -0.24
31262 H 29.966539069308226 60.41359340537257 21.084135687273374 H 0.0 **** 0.06
31263 H 31.53481705598736 59.717140995446805 20.611444363551527 H 0.0 **** 0.06
31264 H 31.42178363185232 61.43873175455867 21.052709352078352 H 0.0 **** 0.06
31265 H 30.706392048738095 60.86091264425951 19.52812154947651 H 0.0 **** 0.06
31266 C 15.929642338759635 102.08765298915137 105.4104860120751 C 0.0 **** -0.24
31267 H 16.96015207183902 102.17531647985965 105.75486338525687 H 0.0 **** 0.06
31268 H 15.2726609105016 101.9339033225151 106.2658703356824 H 0.0 **** 0.06
31269 H 15.844811855908347 101.24084365063413 104.7294392450207 H 0.0 **** 0.06
31270 H 15.64176901194557 103.00170483199923 104.89036276967514 H 0.0 **** 0.06
31271 C 11.4751515551377 5.675490844349724 19.49711044213535 C 0.0 **** -0.24
31272 H 11.719653465097366 6.536615894977359 20.118908174224288 H 0.0 **** 0.06
31273 H 10.39261393766418 5.5521700769925815 19.455273813095857 H 0.0 **** 0.06
31274 H 11.926528177987535 4.7793651052161295 19.92376347522378 H 0.0 **** 0.06
31275 H 11.862546170328102 5.833139009217632 18.490420595164267 H 0.0 **** 0.06
31276 C 80.28830643053436 43.05586858418977 21.8511660585269 C 0.0 **** -0.24
31277 H 79.63513601397233 43.747864687900474 22.38288851565541 H 0.0 **** 0.06
31278 H 80.21675338590825 42.068053950605574 22.30725861941363 H 0.0 **** 0.06
31279 H 81.31729150155147 43.410091374461835 21.90953454200097 H 0.0 **** 0.06
31280 H 79.98210596386127 42.99653651161462 20.80615743873483 H 0.0 **** 0.06
31281 C 64.24477060537998 17.268757698099932 66.49354111937774 C 0.0 **** -0.24
31282 H 64.67923975657371 16.278472715920714 66.35418467251455 H 0.0 **** 0.06
31283 H 63.83740612008298 17.34731223622697 67.50156955836096 H 0.0 **** 0.06
31284 H 63.44728154738545 17.421024053672966 65.76541187480666 H 0.0 **** 0.06
31285 H 65.01514011359686 18.02616420694588 66.35212290922422 H 0.0 **** 0.06
31286 C 75.97065445606992 78.70638854468191 45.57309016049908 C 0.0 **** -0.24
31287 H 76.57388192949884 78.30001463675248 44.760374398134786 H 0.0 **** 0.06
31288 H 75.01937460595869 78.17546571812446 45.62026662277148 H 0.0 **** 0.06
31289 H 75.78752551338448 79.76632518436116 45.39439174467708 H 0.0 **** 0.06
31290 H 76.5025778479536 78.58300670760133 46.51594981995399 H 0.0 **** 0.06
31291 C 11.40514043427326 24.319282504796675 30.435639430586065 C 0.0 **** -0.24
31292 H 10.324205191326676 24.175702494834553 30.424467679754372 H 0.0 **** 0.06
31293 H 11.690673203989306 24.98889491075603 29.62409075504459 H 0.0 **** 0.06
31294 H 11.90016741724095 23.357231054489596 30.30550786224194 H 0.0 **** 0.06
31295 H 11.703627379256488 24.75589833783777 31.389529472567574 H 0.0 **** 0.06
31296 C 47.4495705636341 24.039229700590653 48.79086442249502 C 0.0 **** -0.24
31297 H 46.422798216828625 23.756933914759756 48.55858314674754 H 0.0 **** 0.06
31298 H 48.08047219559742 23.86580617228377 47.91870364887353 H 0.0 **** 0.06
31299 H 47.81039707396769 23.440342480267702 49.62602260534055 H 0.0 **** 0.06
31300 H 47.48411954732373 25.09534656173787 49.05945992589443 H 0.0 **** 0.06
31301 C 93.97879673179682 94.3611974737999 82.31472563418882 C 0.0 **** -0.24
31302 H 93.0948994390001 93.72649879670624 82.24654082009218 H 0.0 **** 0.06
31303 H 94.8704898358385 93.76310914293254 82.12701117106226 H 0.0 **** 0.06
31304 H 94.0357002514834 94.7972460558531 83.31145203372083 H 0.0 **** 0.06
31305 H 93.91107721905206 95.15739138312037 81.57313523997578 H 0.0 **** 0.06
31306 C 98.08641124573148 25.14273393763068 90.31075073029447 C 0.0 **** -0.24
31307 H 97.76137226284311 25.92463091480562 90.99722050439644 H 0.0 **** 0.06
31308 H 98.28562532073346 24.228277021218332 90.86926684593212 H 0.0 **** 0.06
31309 H 98.99409521796633 25.462303665814204 89.79963439182262 H 0.0 **** 0.06
31310 H 97.30303837695405 24.95632401082031 89.57534858259638 H 0.0 **** 0.06
31311 C 100.59241785951659 7.3597823821487935 101.18117675981136 C 0.0 **** -0.24
31312 H 99.76853421047866 8.05360764892366 101.01318802667447 H 0.0 **** 0.06
31313 H 100.69808443056155 6.705563632347236 100.31658015633639 H 0.0 **** 0.06
31314 H 100.3871792062435 6.760718531687729 102.06887976005095 H 0.0 **** 0.06
31315 H 101.51497759999177 7.921645440731737 101.3279057872166 H 0.0 **** 0.06
31316 C 98.11081212516459 1.410687292125317 11.662874994857077 C 0.0 **** -0.24
31317 H 97.61765429299811 1.8564023988259777 10.79831069231733 H 0.0 **** 0.06
31318 H 97.98146894858186 2.0617212755756924 12.528936890753442 H 0.0 **** 0.06
31319 H 99.17374836296864 1.292274369576532 11.453325764659354 H 0.0 **** 0.06
31320 H 97.67005687377892 0.43666410366168407 11.871471516644675 H 0.0 **** 0.06
31321 C 44.44309709168353 13.43460553012926 86.13091881720968 C 0.0 **** -0.24
31322 H 44.064456633538974 12.589218087261088 85.55731060551321 H 0.0 **** 0.06
31323 H 45.52931108543147 13.474067413499313 86.0451229892632 H 0.0 **** 0.06
31324 H 44.16417974776272 13.317566309408335 87.17826065236346 H 0.0 **** 0.06
31325 H 44.014588702957646 14.358736628387277 85.74219490935451 H 0.0 **** 0.06
31326 C 69.80835917360957 86.83923688559148 16.019264759845157 C 0.0 **** -0.24
31327 H 68.84755145718424 86.99242533489016 15.529034478158167 H 0.0 **** 0.06
31328 H 70.46953704408236 87.67606091530556 15.791975539802479 H 0.0 **** 0.06
31329 H 70.25659281151891 85.91345541163213 15.659890056461649 H 0.0 **** 0.06
31330 H 69.65926298245856 86.77616967158613 17.098003801991467 H 0.0 **** 0.06
31331 C 31.946064302579366 28.55379783557221 35.01374869752266 C 0.0 **** -0.24
31332 H 32.16575895360682 27.87851124875322 34.186322991987396 H 0.0 **** 0.06
31333 H 31.705928343429257 27.970976104667933 35.90342985471307 H 0.0 **** 0.06
31334 H 31.097130409146445 29.18537581655621 34.752103020990546 H 0.0 **** 0.06
31335 H 32.81708398679544 29.17851898228774 35.212987738615766 H 0.0 **** 0.06
31336 C 112.11041518217814 44.46224173098484 97.79229959023729 C 0.0 **** -0.24
31337 H 112.20627429736749 43.37780770973418 97.73375150268149 H 0.0 **** 0.06
31338 H 111.49653033768399 44.817398643591986 96.9646596182487 H 0.0 **** 0.06
31339 H 113.09978244534042 44.917505151195805 97.73278747265016 H 0.0 **** 0.06
31340 H 111.64139370857072 44.73446114402343 98.73736856320517 H 0.0 **** 0.06
31341 C 60.194697112161414 50.881303832224276 43.3501275857294 C 0.0 **** -0.24
31342 H 59.307725963113874 51.41813693475639 43.68585863615974 H 0.0 **** 0.06
31343 H 60.01052923446573 50.45711105131171 42.36272458568918 H 0.0 **** 0.06
31344 H 60.42270422465001 50.080304967093994 44.05401081062907 H 0.0 **** 0.06
31345 H 61.03844492628482 51.57054245167929 43.29883622879705 H 0.0 **** 0.06
31346 C 59.419017461096814 13.094008815953124 48.381597911178105 C 0.0 **** -0.24
31347 H 59.57250769266875 12.015126598041189 48.42474822687336 H 0.0 **** 0.06
31348 H 58.66651020405459 13.32383350162658 47.62779796377697 H 0.0 **** 0.06
31349 H 60.35686714130105 13.583210299704255 48.12046616095448 H 0.0 **** 0.06
31350 H 59.08125096111672 13.451401132446861 49.354270249393224 H 0.0 **** 0.06
31351 C 16.672331961118687 96.75643083900795 10.122922715062174 C 0.0 **** -0.24
31352 H 17.298817677007946 96.34437621370802 10.914069100807424 H 0.0 **** 0.06
31353 H 16.372401309805582 95.95649043695332 9.444297593277028 H 0.0 **** 0.06
31354 H 17.233207459050448 97.51051116205835 9.570794554896594 H 0.0 **** 0.06
31355 H 15.785911870824293 97.21211489762521 10.562588890488513 H 0.0 **** 0.06
31356 C 96.58642308459508 85.6944371157405 41.023556947605755 C 0.0 **** -0.24
31357 H 97.44372135090364 85.47290430735472 41.65880952139929 H 0.0 **** 0.06
31358 H 96.19710540555604 86.6824461782877 41.27083785549206 H 0.0 **** 0.06
31359 H 95.81085446407405 84.94664099358539 41.18829985318314 H 0.0 **** 0.06
31360 H 96.89480345529316 85.67579483604979 39.97859812736431 H 0.0 **** 0.06
31361 C 10.108580086099664 46.57491779254667 40.608926227291235 C 0.0 **** -0.24
31362 H 9.09425543827237 46.79872238668017 40.27784314975629 H 0.0 **** 0.06
31363 H 10.700951093726417 47.490910154673486 40.60676882799572 H 0.0 **** 0.06
31364 H 10.559831362475819 45.84801758803488 39.93319893502897 H 0.0 **** 0.06
31365 H 10.07897050298186 46.16422569924012 41.61768793690145 H 0.0 **** 0.06
31366 C 113.02722774283944 86.866382449919 29.1765634960407 C 0.0 **** -0.24
31367 H 112.13667119297124 86.4494455081691 29.64771276132994 H 0.0 **** 0.06
31368 H 112.87024006596874 87.92740479554047 28.980332855892925 H 0.0 **** 0.06
31369 H 113.21793503722888 86.34698315299232 28.237128507768062 H 0.0 **** 0.06
31370 H 113.88182943785242 86.7417537269695 29.841053187553285 H 0.0 **** 0.06
31371 C 11.243316491204439 6.569497206225691 114.76238400260752 C 0.0 **** -0.24
31372 H 12.018142823220444 5.804098043494321 114.70174288846599 H 0.0 **** 0.06
31373 H 10.471982236039622 6.250392158678238 115.46398107653849 H 0.0 **** 0.06
31374 H 10.799857362152409 6.715994108313112 113.77692335376048 H 0.0 **** 0.06
31375 H 11.684338485490656 7.504653215248339 115.1055628603049 H 0.0 **** 0.06
31376 C 33.627820235015236 65.4222677473839 77.07309445889962 C 0.0 **** -0.24
31377 H 34.29422531229039 66.01062669683529 76.44211426744187 H 0.0 **** 0.06
31378 H 33.945493963474064 64.37923004754617 77.0642191070744 H 0.0 **** 0.06
31379 H 32.609440446528254 65.4956489814792 76.69239152173395 H 0.0 **** 0.06
31380 H 33.66286959169423 65.80410993981084 78.09327435986637 H 0.0 **** 0.06
31381 C 99.79353010248659 58.850094601918045 79.6872027946838 C 0.0 **** -0.24
31382 H 100.06283806911705 58.702075080675485 78.64173191149044 H 0.0 **** 0.06
31383 H 99.71986795613472 57.88292951670951 80.18433813259037 H 0.0 **** 0.06
31384 H 98.83357138963285 59.36306966693303 79.74607400292518 H 0.0 **** 0.06
31385 H 100.55778798732149 59.453534908525114 80.17736161523683 H 0.0 **** 0.06
31386 C 92.20458327130129 59.977588187283914 65.37480996363627 C 0.0 **** -0.24
31387 H 91.55977238130407 59.1932192081083 64.97802008654907 H 0.0 **** 0.06
31388 H 92.32173020057519 60.76321036307991 64.62805874276984 H 0.0 **** 0.06
31389 H 93.1808653962699 59.55652760739247 65.61508931924914 H 0.0 **** 0.06
31390 H 91.75624938285745 60.39468321125321 66.2761841327112 H 0.0 **** 0.06
31391 C 61.56219425371915 61.08235452011968 3.8376622227940516 C 0.0 **** -0.24
31392 H 60.58653393588428 61.08826866485026 3.3514894710572776 H 0.0 **** 0.06
31393 H 61.449173895627105 60.766570919619426 4.87514915102804 H 0.0 **** 0.06
31394 H 61.988876889344645 62.08520606549621 3.8075672913203107 H 0.0 **** 0.06
31395 H 62.223493088586004 60.38989304437757 3.316933009416516 H 0.0 **** 0.06
31396 C 78.74209060277059 68.53046953214408 59.175844956299976 C 0.0 **** -0.24
31397 H 79.30629262982478 69.37576462736948 58.78004409550798 H 0.0 **** 0.06
31398 H 78.28517333560708 67.98219981190022 58.35204832789653 H 0.0 **** 0.06
31399 H 77.96345085474351 68.89571889947447 59.84570540818657 H 0.0 **** 0.06
31400 H 79.41292960917247 67.8710633119673 59.72487075099294 H 0.0 **** 0.06
31401 C 106.12903110515023 57.783620887684236 34.59656861564412 C 0.0 **** -0.24
31402 H 105.3706597030702 58.56121153529713 34.68545360712395 H 0.0 **** 0.06
31403 H 107.07527224018392 58.23186306923856 34.293978774613294 H 0.0 **** 0.06
31404 H 105.81530865490387 57.05434322517846 33.848403933471246 H 0.0 **** 0.06
31405 H 106.25283855142695 57.28575290475578 35.558131996719936 H 0.0 **** 0.06
31406 C 115.5752841637063 37.145374062841825 94.25064096594951 C 0.0 **** -0.24
31407 H 115.28328833597291 38.191813286274936 94.1597653378125 H 0.0 **** 0.06
31408 H 116.11724163876326 36.99962510791079 95.1854705477559 H 0.0 **** 0.06
31409 H 116.21650883504381 36.873473513571696 93.41211727258826 H 0.0 **** 0.06
31410 H 114.68495757957962 36.51770011999642 94.24508415254749 H 0.0 **** 0.06
31411 C 80.07599944260792 28.101214528423668 1.867207960707077 C 0.0 **** -0.24
31412 H 79.22863998214291 28.780584862442524 1.7668638127909446 H 0.0 **** 0.06
31413 H 80.45136447712869 27.841252001043472 0.8769758692976666 H 0.0 **** 0.06
31414 H 79.75716274451392 27.19708436726873 2.3848571825939473 H 0.0 **** 0.06
31415 H 80.86590161656062 28.5887341934108 2.4386142071516446 H 0.0 **** 0.06
31416 C 65.28379035593707 99.08542607252474 106.96457017411296 C 0.0 **** -0.24
31417 H 65.09364357491026 98.2168435515299 106.33413574653454 H 0.0 **** 0.06
31418 H 65.28925771216583 99.98539972496053 106.34969092118013 H 0.0 **** 0.06
31419 H 66.25158020875858 98.97389374176362 107.45391190441711 H 0.0 **** 0.06
31420 H 64.50127744335705 99.16498979728681 107.71902236362197 H 0.0 **** 0.06
31421 C 41.22607984368386 80.39216567008745 73.61946746712732 C 0.0 **** -0.24
31422 H 41.480396170976235 79.3388445442049 73.74188820665407 H 0.0 **** 0.06
31423 H 42.10210427282789 81.00515441208711 73.83137302528314 H 0.0 **** 0.06
31424 H 40.42302988091035 80.65365503552582 74.30928562657411 H 0.0 **** 0.06
31425 H 40.89749370815014 80.56918751017938 72.59539843609204 H 0.0 **** 0.06
31426 C 74.39073941294836 46.821426009934385 73.36241575096835 C 0.0 **** -0.24
31427 H 74.71355770974293 47.422020331751355 72.51136943194058 H 0.0 **** 0.06
31428 H 74.05626692578193 45.84476287228256 73.01069666658458 H 0.0 **** 0.06
31429 H 73.56979680027192 47.3255527631988 73.87173625273363 H 0.0 **** 0.06
31430 H 75.22422955768764 46.69354916847192 74.05358700066799 H 0.0 **** 0.06
31431 C 77.72067530895012 104.68001799055398 95.56014567342584 C 0.0 **** -0.24
31432 H 77.59895427761157 103.7276411246051 95.0441105364377 H 0.0 **** 0.06
31433 H 78.74013337624098 105.03989086298915 95.42203080448931 H 0.0 **** 0.06
31434 H 77.52404657868041 104.54334786204376 96.62458144650859 H 0.0 **** 0.06
31435 H 77.01880694505525 105.40706358229119 95.15228731411995 H 0.0 **** 0.06
31436 C 110.17221474486395 114.47374703141281 87.27461649404086 C 0.0 **** -0.24
31437 H 110.57777406146775 114.00980581267814 88.17501767538047 H 0.0 **** 0.06
31438 H 110.99051534689148 114.84703353570134 86.65895159340198 H 0.0 **** 0.06
31439 H 109.52000740847903 115.30088288632354 87.55543823428422 H 0.0 **** 0.06
31440 H 109.60034309061973 113.73507982628308 86.71282334118052 H 0.0 **** 0.06
31441 C 4.446327065902562 48.29848471629718 56.37648300594032 C 0.0 **** -0.24
31442 H 3.814952609283953 47.449866048503054 56.11177437114855 H 0.0 **** 0.06
31443 H 3.8970524888741274 49.22578481161236 56.20650631474974 H 0.0 **** 0.06
31444 H 5.345109292724395 48.289131824694365 55.76013328463362 H 0.0 **** 0.06
31445 H 4.724967270045145 48.22890621602501 57.42824413276944 H 0.0 **** 0.06
31446 C 54.671101989386244 12.941026968667813 49.7226131131311 C 0.0 **** -0.24
31447 H 55.05369996268621 12.852093506771908 48.70619560325332 H 0.0 **** 0.06
31448 H 55.340159274392335 13.571421778855324 50.309129738804245 H 0.0 **** 0.06
31449 H 54.61166219108955 11.952523467382548 50.17716306233149 H 0.0 **** 0.06
31450 H 53.67726427917495 13.389562641669414 49.69833552157684 H 0.0 **** 0.06
31451 C 92.63192589363794 6.302022948076914 35.32003152984376 C 0.0 **** -0.24
31452 H 91.98308446979993 7.17614197314758 35.38231918284124 H 0.0 **** 0.06
31453 H 92.99873759430818 6.051010444505742 36.31562979398326 H 0.0 **** 0.06
31454 H 93.47484025739155 6.521948068919441 34.66486263347056 H 0.0 **** 0.06
31455 H 92.06835538666886 5.460642180176777 34.917562129450175 H 0.0 **** 0.06
31456 C 103.06129275227173 31.673192841145607 38.062840642541744 C 0.0 **** -0.24
31457 H 104.04063194145903 31.201099197705304 37.97577518375695 H 0.0 **** 0.06
31458 H 103.14492712286759 32.73117053764372 37.81620853775232 H 0.0 **** 0.06
31459 H 102.69595198952459 31.565139493741867 39.08378213440497 H 0.0 **** 0.06
31460 H 102.3644808889911 31.192518811404227 37.375104679341945 H 0.0 **** 0.06
31461 C 96.1722384249916 105.09688896260855 105.93758328883308 C 0.0 **** -0.24
31462 H 95.97932190891365 104.1477077886743 105.43625568860483 H 0.0 **** 0.06
31463 H 95.97851840645575 105.91770292130497 105.24706394544239 H 0.0 **** 0.06
31464 H 97.21216268843011 105.13164475769955 106.26149299116827 H 0.0 **** 0.06
31465 H 95.51799212233033 105.18868818199687 106.80417985382826 H 0.0 **** 0.06
31466 C 3.476337548237254 33.95565966094125 72.23773652517596 C 0.0 **** -0.24
31467 H 3.023148785459398 33.56257274267281 71.32723686457484 H 0.0 **** 0.06
31468 H 2.7327552749656405 34.523016357151704 72.79762647687258 H 0.0 **** 0.06
31469 H 4.310170585387965 34.60676612469729 71.97644020123491 H 0.0 **** 0.06
31470 H 3.838211321772846 33.12843158663449 72.84898041708743 H 0.0 **** 0.06
31471 C 0.5330858651799133 30.913587646130225 13.277763646472607 C 0.0 **** -0.24
31472 H -0.5366181069644256 30.763010413929095 13.130726573071314 H 0.0 **** 0.06
31473 H 0.6929604833859315 31.563307628277954 14.13882814815463 H 0.0 **** 0.06
31474 H 0.9616294561132861 31.375651939533185 12.388035045462459 H 0.0 **** 0.06
31475 H 1.013354134004473 29.95051853073545 13.454170286098247 H 0.0 **** 0.06
31476 C 64.63201863834658 33.52956048524322 40.76451303017262 C 0.0 **** -0.24
31477 H 64.38801777414614 32.519291996546116 41.093324732401925 H 0.0 **** 0.06
31478 H 63.922288905887996 34.23378037982698 41.198015026786436 H 0.0 **** 0.06
31479 H 64.57831816021925 33.5801959256697 39.67712613402955 H 0.0 **** 0.06
31480 H 65.64109849234595 33.78195953581141 41.091068631666815 H 0.0 **** 0.06
31481 C 74.6126687138671 110.70901958730755 111.55227872946921 C 0.0 **** -0.24
31482 H 74.30707839651197 110.86542484084417 110.51727825783871 H 0.0 **** 0.06
31483 H 73.82861713184829 110.16829819023381 112.08396336493027 H 0.0 **** 0.06
31484 H 74.77866623699526 111.6732811330622 112.03152229667744 H 0.0 **** 0.06
31485 H 75.53462109260835 110.1277615554481 111.57570722974744 H 0.0 **** 0.06
31486 C 109.69492046241268 15.758575980698723 3.9038551825859713 C 0.0 **** -0.24
31487 H 109.90411094340108 15.51255385208523 2.862370919173543 H 0.0 **** 0.06
31488 H 108.97789149191847 16.579301635019235 3.945782512486744 H 0.0 **** 0.06
31489 H 110.61878565323555 16.05747285363707 4.398204941567087 H 0.0 **** 0.06
31490 H 109.27925922387924 14.885615266509504 4.406726208780128 H 0.0 **** 0.06
31491 C 58.37364367728956 68.88311960143201 94.02054815380825 C 0.0 **** -0.24
31492 H 58.92540925083373 69.58416795255752 94.64603665987221 H 0.0 **** 0.06
31493 H 58.520482337096745 67.869406810362 94.39426434724328 H 0.0 **** 0.06
31494 H 58.736681773954764 68.94868170098786 92.99452916869313 H 0.0 **** 0.06
31495 H 57.31200134727292 69.13022194182085 94.04736243942443 H 0.0 **** 0.06
31496 C 66.79138973226802 73.99516771274926 9.754517524539267 C 0.0 **** -0.24
31497 H 66.90549521962515 73.93692964482602 10.83705447163274 H 0.0 **** 0.06
31498 H 67.76903531243764 73.89969496385672 9.281497365262169 H 0.0 **** 0.06
31499 H 66.35037680641318 74.95488817420491 9.48764841185411 H 0.0 **** 0.06
31500 H 66.14170447554108 73.18910130363417 9.413841777737503 H 0.0 **** 0.06
31501 C 109.26567634720703 74.2126549686503 19.354851100122914 C 0.0 **** -0.24
31502 H 108.64363611588476 75.10756459454669 19.384460398405224 H 0.0 **** 0.06
31503 H 109.47100706234954 73.87957590291441 20.37252670520462 H 0.0 **** 0.06
31504 H 110.20432814690196 74.4402034301524 18.85024390101856 H 0.0 **** 0.06
31505 H 108.74232320363967 73.42508641041891 18.813028991782204 H 0.0 **** 0.06
31506 C 41.28904510506129 96.60482888220608 30.525874882692165 C 0.0 **** -0.24
31507 H 40.48603589219783 95.87439248331506 30.620059732716243 H 0.0 **** 0.06
31508 H 42.130338249578756 96.15336874776591 29.999200782341006 H 0.0 **** 0.06
31509 H 41.60927455737249 96.92232430889513 31.518183661649857 H 0.0 **** 0.06
31510 H 40.92970118270739 97.46821104167825 29.965533751963278 H 0.0 **** 0.06
31511 C 88.93507831690923 90.88702986123255 21.1649362258444 C 0.0 **** -0.24
31512 H 89.64519588733319 91.31214457499317 21.874153734388898 H 0.0 **** 0.06
31513 H 88.45050875106443 90.01878844416976 21.612748916357972 H 0.0 **** 0.06
31514 H 89.46340012610676 90.58184035402223 20.261224742233225 H 0.0 **** 0.06
31515 H 88.18269456730809 91.63403567052546 20.911890812629423 H 0.0 **** 0.06
31516 C 58.412047602513326 18.94890717279387 97.13371835989096 C 0.0 **** -0.24
31517 H 59.20584145602271 19.41268948322826 96.5481671236856 H 0.0 **** 0.06
31518 H 57.470394227836096 19.462549883264813 96.93947865519769 H 0.0 **** 0.06
31519 H 58.65301710454912 19.019648832769516 98.19378590826244 H 0.0 **** 0.06
31520 H 58.31898296839296 17.90033470082353 96.85102646246364 H 0.0 **** 0.06
31521 C 77.13873904324566 91.90105529698332 11.16808756719615 C 0.0 **** -0.24
31522 H 77.23252691143608 90.84605874869735 10.910250224521295 H 0.0 **** 0.06
31523 H 78.09782997668168 92.2728778042468 11.529643388613259 H 0.0 **** 0.06
31524 H 76.3855319480216 92.01956770666337 11.946582786302173 H 0.0 **** 0.06
31525 H 76.84062614702344 92.46471760668456 10.283513363145929 H 0.0 **** 0.06
31526 C 15.693797197201086 80.69708739323377 7.5506645313846406 C 0.0 **** -0.24
31527 H 15.216068895129798 80.49569890231021 6.591927705133514 H 0.0 **** 0.06
31528 H 15.504511714657408 79.86712830806229 8.231640966368559 H 0.0 **** 0.06
31529 H 15.284493833688064 81.61441423155509 7.974260109522078 H 0.0 **** 0.06
31530 H 16.76790566516489 80.81128533208604 7.404528309700268 H 0.0 **** 0.06
31531 C 16.213728854897113 92.20272000262517 19.86575693169948 C 0.0 **** -0.24
31532 H 15.88992825283458 92.46697571358169 20.87286323357705 H 0.0 **** 0.06
31533 H 16.158339409728228 91.12136145374174 19.739306623996583 H 0.0 **** 0.06
31534 H 17.240536192970467 92.53493579200781 19.71609642660121 H 0.0 **** 0.06
31535 H 15.563843609963158 92.68787945564034 19.137166191797007 H 0.0 **** 0.06
31536 C 115.41410506453661 42.3046664791308 85.6014345415006 C 0.0 **** -0.24
31537 H 116.05998067392954 42.42693518882906 84.73256518229934 H 0.0 **** 0.06
31538 H 115.04795304725246 43.28103633380539 85.92154338700169 H 0.0 **** 0.06
31539 H 115.97939929428816 41.84517763325573 86.41207033091862 H 0.0 **** 0.06
31540 H 114.57004522610373 41.668165522052306 85.3398177132567 H 0.0 **** 0.06
31541 C 11.769293951411527 22.710010214305953 56.91037586037123 C 0.0 **** -0.24
31542 H 11.075224641222277 23.530033197114847 57.09351799879772 H 0.0 **** 0.06
31543 H 11.44826393742592 22.15312219264115 56.02903283182377 H 0.0 **** 0.06
31544 H 11.783657442863031 22.045771117484804 57.77447832946348 H 0.0 **** 0.06
31545 H 12.768840631310212 23.111556913706067 56.74263299294881 H 0.0 **** 0.06
31546 C 26.372011756325485 57.461782694775685 44.27322683322325 C 0.0 **** -0.24
31547 H 27.238320845218396 57.564973309465636 44.926178737293526 H 0.0 **** 0.06
31548 H 25.708306041846022 58.31604929940868 44.41295999574078 H 0.0 **** 0.06
31549 H 25.839333297948997 56.54304489176915 44.518488871489524 H 0.0 **** 0.06
31550 H 26.702732140051722 57.42413680134013 43.23462302985405 H 0.0 **** 0.06
31551 C 99.47396701129477 25.48824787697822 54.25056771872777 C 0.0 **** -0.24
31552 H 100.31275312479136 25.285617900728028 54.917642678020734 H 0.0 **** 0.06
31553 H 99.80764190034822 26.124323756233622 53.430859541974165 H 0.0 **** 0.06
31554 H 98.684043925742 25.994408647371003 54.80530436572982 H 0.0 **** 0.06
31555 H 99.09250833295471 24.548733568056015 53.85066134654194 H 0.0 **** 0.06
31556 C 45.82934003686847 66.46771409933683 56.94136939562555 C 0.0 **** -0.24
31557 H 46.263722157801396 66.04653248506497 56.034310285763716 H 0.0 **** 0.06
31558 H 44.742836651044115 66.40338669452632 56.888460949754425 H 0.0 **** 0.06
31559 H 46.12857911362943 67.51243011553578 57.03502024247984 H 0.0 **** 0.06
31560 H 46.18574277050254 65.90843163548095 57.806910979497054 H 0.0 **** 0.06
31561 C 40.987586069379425 100.4257129519157 78.54285864711377 C 0.0 **** -0.24
31562 H 40.72789688058459 100.08409400440061 79.54518245975927 H 0.0 **** 0.06
31563 H 41.05466623601298 101.51415162493288 78.53603677622394 H 0.0 **** 0.06
31564 H 40.2191131712324 100.10365367588881 77.83982577625105 H 0.0 **** 0.06
31565 H 41.9480468271205 100.00030369637767 78.2521765960746 H 0.0 **** 0.06
31566 C 22.878999824559912 57.37887075176828 102.98642882015386 C 0.0 **** -0.24
31567 H 23.008493845724104 56.90092082552777 102.0155255718478 H 0.0 **** 0.06
31568 H 23.5000815532008 56.87207091910643 103.72598372961207 H 0.0 **** 0.06
31569 H 21.832559780698233 57.315263529812164 103.2860274919143 H 0.0 **** 0.06
31570 H 23.174370086961233 58.42555311477785 102.91957558352763 H 0.0 **** 0.06
31571 C 82.86272907346478 116.27497865319127 26.8366842574277 C 0.0 **** -0.24
31572 H 83.45608236732537 115.3790228589012 27.019607897530747 H 0.0 **** 0.06
31573 H 83.45223902346336 116.99039817388106 26.26291259538884 H 0.0 **** 0.06
31574 H 82.57424894028273 116.71994367941241 27.78833084652169 H 0.0 **** 0.06
31575 H 81.96748667882795 116.0078319903213 26.27419003891889 H 0.0 **** 0.06
31576 C 64.2921337523631 4.045237245085843 7.740980298000011 C 0.0 **** -0.24
31577 H 64.844314461485 4.973448393017378 7.59122202174882 H 0.0 **** 0.06
31578 H 63.967569574867674 3.655931780647009 6.776040242892634 H 0.0 **** 0.06
31579 H 63.42045783110421 4.238388595092175 8.36655893509311 H 0.0 **** 0.06
31580 H 64.93571158580446 3.3145081599119095 8.230030905503497 H 0.0 **** 0.06
31581 C 88.55505790596786 38.74696571885917 61.051559561070974 C 0.0 **** -0.24
31582 H 88.69333546916678 39.795810586832324 60.78680723784862 H 0.0 **** 0.06
31583 H 89.44993516168788 38.18451642469572 60.78233931133349 H 0.0 **** 0.06
31584 H 87.69804282547395 38.34603139857513 60.51076776812732 H 0.0 **** 0.06
31585 H 88.38059698024361 38.66236999767346 62.1230938721169 H 0.0 **** 0.06
31586 C 76.37131324454577 61.0267782529397 104.33040478704146 C 0.0 **** -0.24
31587 H 77.16307472127863 61.560114680872694 103.80370276368632 H 0.0 **** 0.06
31588 H 75.52006507857396 60.88890189924923 103.66371097653649 H 0.0 **** 0.06
31589 H 76.06162341619256 61.605408879224065 105.20127150098932 H 0.0 **** 0.06
31590 H 76.74206376862992 60.053867991703704 104.65399661900068 H 0.0 **** 0.06
31591 C 22.868604001345147 86.97851323257214 16.37035560745518 C 0.0 **** -0.24
31592 H 23.21858397515402 85.95812916102642 16.21777034290632 H 0.0 **** 0.06
31593 H 22.638424823495313 87.13004416391612 17.424639179741447 H 0.0 **** 0.06
31594 H 21.971519772543246 87.14769242633741 15.774542492522528 H 0.0 **** 0.06
31595 H 23.64616514506403 87.6791968734039 16.063519883221645 H 0.0 **** 0.06
31596 C 45.566839761969476 110.31814988006795 105.95079922493582 C 0.0 **** -0.24
31597 H 44.75630252279359 109.71820501394305 106.36386274708306 H 0.0 **** 0.06
31598 H 46.25647604603128 109.6711391216882 105.40815673382303 H 0.0 **** 0.06
31599 H 46.0976226998761 110.81920549993049 106.76006474404886 H 0.0 **** 0.06
31600 H 45.156168606702465 111.06383176032234 105.2690318290935 H 0.0 **** 0.06
31601 C 38.962260892391214 32.75214189460089 30.6787922938324 C 0.0 **** -0.24
31602 H 39.814680984334075 32.48728692800671 30.0545441836216 H 0.0 **** 0.06
31603 H 39.31567291631552 33.21412042199178 31.60102533897114 H 0.0 **** 0.06
31604 H 38.39364945358801 31.85257566095339 30.91729316334252 H 0.0 **** 0.06
31605 H 38.32381611764907 33.45396747852035 30.14265419936794 H 0.0 **** 0.06
31606 C 24.65315951685369 105.19190270055654 98.95122067146946 C 0.0 **** -0.24
31607 H 25.61376665581207 105.69436102459332 98.8346506750839 H 0.0 **** 0.06
31608 H 24.760885651388264 104.13839642698369 98.69075445944421 H 0.0 **** 0.06
31609 H 23.91891354919278 105.65648632489174 98.29247419014257 H 0.0 **** 0.06
31610 H 24.321738989918146 105.27949122421282 99.98572858724643 H 0.0 **** 0.06
31611 C 26.621653599113444 48.47040658881884 33.36038897041587 C 0.0 **** -0.24
31612 H 26.273688152846148 47.83425477337606 34.17477581522448 H 0.0 **** 0.06
31613 H 27.525009349194306 48.04228742875822 32.92539889573703 H 0.0 **** 0.06
31614 H 26.839390555562915 49.4662417234958 33.74535380093752 H 0.0 **** 0.06
31615 H 25.84637049485312 48.53705882967217 32.59644158250589 H 0.0 **** 0.06
31616 C 60.271461088360724 46.720266827689166 92.93690856119315 C 0.0 **** -0.24
31617 H 59.84706876723985 45.805101770183576 92.52477750813068 H 0.0 **** 0.06
31618 H 61.224852605808906 46.929207246123426 92.45035686471385 H 0.0 **** 0.06
31619 H 60.429548088229296 46.59588238083289 94.00882322858217 H 0.0 **** 0.06
31620 H 59.58543558292155 47.54867198825649 92.76354249259515 H 0.0 **** 0.06
31621 C 54.33222401870529 53.92313529097705 47.380964691555704 C 0.0 **** -0.24
31622 H 54.494153196650984 53.23697151095237 48.21211278839053 H 0.0 **** 0.06
31623 H 53.69833494006144 53.44489849713872 46.63352557466479 H 0.0 **** 0.06
31624 H 55.29182524401472 54.18190135720867 46.932849075198334 H 0.0 **** 0.06
31625 H 53.84657388855635 54.82753286981579 47.74608231325291 H 0.0 **** 0.06
31626 C 116.02049265365264 44.589539142254665 63.38385927742823 C 0.0 **** -0.24
31627 H 115.53897830015666 44.28374444817025 64.31272606069709 H 0.0 **** 0.06
31628 H 115.58560536564156 44.03687422525289 62.55086316604877 H 0.0 **** 0.06
31629 H 117.08852631166926 44.37950339221638 63.44129667604628 H 0.0 **** 0.06
31630 H 115.86761160226445 45.6585128409254 63.23101079495797 H 0.0 **** 0.06
31631 C 19.996951437242757 35.19191784958173 17.362565298319225 C 0.0 **** -0.24
31632 H 18.952673740693626 35.49948829879622 17.30171697813796 H 0.0 **** 0.06
31633 H 20.271086608321127 35.04301047374372 18.406886827694905 H 0.0 **** 0.06
31634 H 20.628286620902884 35.965675184439306 16.927163913714367 H 0.0 **** 0.06
31635 H 20.13360107311624 34.26000918277231 16.814205869744796 H 0.0 **** 0.06
31636 C 79.38335663406977 96.36975037988012 84.50699191543413 C 0.0 **** -0.24
31637 H 79.25271355663432 96.93021775443128 85.43315481900865 H 0.0 **** 0.06
31638 H 80.41117889580045 96.47640281672369 84.16029231205482 H 0.0 **** 0.06
31639 H 78.70037188038728 96.75670451637473 83.74976514996425 H 0.0 **** 0.06
31640 H 79.16703437682338 95.31690919613862 84.68698097836369 H 0.0 **** 0.06
31641 C 27.84012086408751 75.32354395865994 32.04368489594337 C 0.0 **** -0.24
31642 H 27.739764374740844 74.89315445934506 33.03934163109105 H 0.0 **** 0.06
31643 H 27.028869231112594 76.03190029753492 31.87041009665395 H 0.0 **** 0.06
31644 H 27.793568660874996 74.52948649887747 31.29864221953582 H 0.0 **** 0.06
31645 H 28.796298268313393 75.83949996387233 31.96612173007359 H 0.0 **** 0.06
31646 C 68.58690404980001 112.94488530322474 11.526757438080637 C 0.0 **** -0.24
31647 H 68.31406399212557 113.59698201706681 12.356691872193636 H 0.0 **** 0.06
31648 H 69.37403092467056 113.4167616022711 10.937702201692105 H 0.0 **** 0.06
31649 H 67.71357239383894 112.77372554238497 10.89699307776246 H 0.0 **** 0.06
31650 H 68.94564547157421 111.99188553115178 11.917011273209852 H 0.0 **** 0.06
31651 C 103.91008424170838 53.682275948243245 95.30234819534084 C 0.0 **** -0.24
31652 H 104.81827619172157 53.09575059024084 95.44142858730268 H 0.0 **** 0.06
31653 H 103.982224321334 54.60467012352302 95.8806871083049 H 0.0 **** 0.06
31654 H 103.05001827975474 53.1060139270445 95.64199144043275 H 0.0 **** 0.06
31655 H 103.79230671213145 53.92412556453374 94.24611423662486 H 0.0 **** 0.06
31656 C 6.548086607452417 79.19174339413667 69.39302445884272 C 0.0 **** -0.24
31657 H 6.438012788220272 80.25956974113706 69.57889684379072 H 0.0 **** 0.06
31658 H 7.405075972901207 79.02334507731905 68.73964762130569 H 0.0 **** 0.06
31659 H 5.644938908286409 78.81203897100522 68.91375226684534 H 0.0 **** 0.06
31660 H 6.703413928491361 78.67192932226016 70.33832690212722 H 0.0 **** 0.06
31661 C 0.5371177182330484 30.532627350029998 44.69552383047156 C 0.0 **** -0.24
31662 H 1.4870525246842021 30.13628828996218 45.05720504962531 H 0.0 **** 0.06
31663 H 0.5174143239817113 31.613627946512906 44.838693415372205 H 0.0 **** 0.06
31664 H -0.28142427541979487 30.076852413735708 45.25163273463545 H 0.0 **** 0.06
31665 H 0.4290866389579264 30.303644936208343 43.63534398519485 H 0.0 **** 0.06
31666 C 60.179289114823526 14.111678140587443 19.324436579814062 C 0.0 **** -0.24
31667 H 60.08424203070677 13.249851442802225 18.662902880197365 H 0.0 **** 0.06
31668 H 59.21442171722477 14.321004559875078 19.78755685373136 H 0.0 **** 0.06
31669 H 60.50173435049158 14.978382331169769 18.74796815554957 H 0.0 **** 0.06
31670 H 60.915343799791906 13.894571768123086 20.09806326552672 H 0.0 **** 0.06
31671 C 61.17296803985567 5.304378584256993 83.35435647181924 C 0.0 **** -0.24
31672 H 61.67393214203722 5.039231049786176 84.28627106727072 H 0.0 **** 0.06
31673 H 61.013044333920426 6.381969492949764 83.32185737226615 H 0.0 **** 0.06
31674 H 60.21202435089213 4.791190369680022 83.30013339608962 H 0.0 **** 0.06
31675 H 61.794349877117405 5.002982389165901 82.51065750258647 H 0.0 **** 0.06
31676 C 71.7461438194324 80.72716833624509 69.52853520512235 C 0.0 **** -0.24
31677 H 72.69809243531984 80.23296636451818 69.72077767776713 H 0.0 **** 0.06
31678 H 71.59623177132403 80.81918727902405 68.45239724454777 H 0.0 **** 0.06
31679 H 71.75335899212865 81.71838602056806 69.98088723142368 H 0.0 **** 0.06
31680 H 70.93680773783811 80.1369624438529 69.9592905001914 H 0.0 **** 0.06
31681 C 107.59917462955528 110.27308931151151 58.91253296934013 C 0.0 **** -0.24
31682 H 108.30776703846718 109.5434479939835 59.305918755344855 H 0.0 **** 0.06
31683 H 107.87267614126398 111.26891104791628 59.26267438852455 H 0.0 **** 0.06
31684 H 106.59558498840715 110.02756844816 59.26174977862161 H 0.0 **** 0.06
31685 H 107.62135648473935 110.25026935022379 57.823512255706525 H 0.0 **** 0.06
31686 C 79.87856536551004 94.75273116085413 17.33356549844234 C 0.0 **** -0.24
31687 H 80.08649914161919 94.34509026066357 18.32228757329483 H 0.0 **** 0.06
31688 H 80.20441912103144 94.04326155609701 16.571753002649928 H 0.0 **** 0.06
31689 H 80.41563812020877 95.69288398008092 17.208012729958824 H 0.0 **** 0.06
31690 H 78.80808505277145 94.92953986154512 17.230854605286567 H 0.0 **** 0.06
31691 C 107.11950724780309 0.7774707214244927 66.04860490411059 C 0.0 **** -0.24
31692 H 107.48451945737614 -0.052974141659490215 66.65274260956099 H 0.0 **** 0.06
31693 H 107.0454156438046 0.4636319152887154 65.00667943183439 H 0.0 **** 0.06
31694 H 107.8126184646811 1.6146936837165526 66.12671047122095 H 0.0 **** 0.06
31695 H 106.13673248064651 1.0839384597246635 66.40653539310838 H 0.0 **** 0.06
31696 C 85.00856805188923 80.01318459222259 77.85570563748306 C 0.0 **** -0.24
31697 H 84.99976268744197 81.10236719731478 77.89704186543463 H 0.0 **** 0.06
31698 H 85.31292832458962 79.61429404961842 78.82336990048307 H 0.0 **** 0.06
31699 H 85.71188805984443 79.68444511891647 77.08982355770723 H 0.0 **** 0.06
31700 H 84.00969856603638 79.65070665942329 77.61055154461559 H 0.0 **** 0.06
31701 C 24.205250099301566 70.66538886186112 41.00813223846621 C 0.0 **** -0.24
31702 H 25.028651740516437 71.0370183202503 40.3990442405318 H 0.0 **** 0.06
31703 H 23.332281056207307 70.49718463894936 40.37514683194005 H 0.0 **** 0.06
31704 H 23.961690394010645 71.4000574048383 41.77536280612168 H 0.0 **** 0.06
31705 H 24.496399904215224 69.72769567738897 41.48158577741005 H 0.0 **** 0.06
31706 C 17.601245337262366 21.305462229362345 44.05454201915023 C 0.0 **** -0.24
31707 H 16.771578722030203 21.436781268187868 43.359963313216724 H 0.0 **** 0.06
31708 H 17.216554442867487 20.98978049338927 45.02503416418233 H 0.0 **** 0.06
31709 H 18.13577368548769 22.249177814936438 44.16462527509509 H 0.0 **** 0.06
31710 H 18.28107449866415 20.546109340935708 43.66854532410679 H 0.0 **** 0.06
31711 C 90.07893619240224 113.42087874623425 69.3099789094081 C 0.0 **** -0.24
31712 H 89.01660779818042 113.30116149739648 69.52112362496072 H 0.0 **** 0.06
31713 H 90.24263697262052 113.37193086036652 68.23381717492805 H 0.0 **** 0.06
31714 H 90.63886529772469 112.62506851766099 69.80083369776997 H 0.0 **** 0.06
31715 H 90.41689977459447 114.38796190541485 69.6849533886982 H 0.0 **** 0.06
31716 C 18.307077105725625 37.40136623344591 12.691150113872794 C 0.0 **** -0.24
31717 H 17.231482944991583 37.46538200853627 12.854089105942222 H 0.0 **** 0.06
31718 H 18.80789928672658 37.21367694813631 13.641656253933789 H 0.0 **** 0.06
31719 H 18.66751239221908 38.34037831217029 12.269829870605122 H 0.0 **** 0.06
31720 H 18.522400313000873 36.58683125887205 11.999642592769746 H 0.0 **** 0.06
31721 C 82.90017216115427 78.37965649659915 29.76017063482402 C 0.0 **** -0.24
31722 H 83.80351257977028 78.89059809171732 30.09535389362958 H 0.0 **** 0.06
31723 H 82.1513632708544 78.40901001656368 30.552550379458467 H 0.0 **** 0.06
31724 H 83.13692206752432 77.34294198724498 29.52106507822714 H 0.0 **** 0.06
31725 H 82.50967265099905 78.87798850372934 28.872568054244994 H 0.0 **** 0.06
31726 C 33.9212338077767 105.11714180086216 7.010990722593846 C 0.0 **** -0.24
31727 H 33.801633642844926 105.89083746027245 6.252353910959229 H 0.0 **** 0.06
31728 H 34.46363798859382 104.2733398845798 6.585058840607189 H 0.0 **** 0.06
31729 H 32.93955955608539 104.78596825985068 7.349353988800033 H 0.0 **** 0.06
31730 H 34.48005152005575 105.52049510519649 7.855893015104954 H 0.0 **** 0.06
31731 C 4.914567501170694 87.35771436453041 113.74654983798554 C 0.0 **** -0.24
31732 H 4.663605321396432 87.4198657332146 112.68694885467144 H 0.0 **** 0.06
31733 H 4.185340066517995 86.72629549543075 114.25478065542531 H 0.0 **** 0.06
31734 H 4.89805478623019 88.35581294905606 114.18308328357658 H 0.0 **** 0.06
31735 H 5.909145465906079 86.92683383295764 113.85850769966565 H 0.0 **** 0.06
31736 C 26.652698162630713 88.77551065626383 1.198784707639101 C 0.0 **** -0.24
31737 H 27.142760226198675 87.97375654036085 0.6454714725052231 H 0.0 **** 0.06
31738 H 26.03736013371173 89.3630002585736 0.5170875127917292 H 0.0 **** 0.06
31739 H 27.40819106280594 89.41807758839363 1.6521060531523286 H 0.0 **** 0.06
31740 H 26.024312751114167 88.3477306324157 1.9789333459180458 H 0.0 **** 0.06
31741 C 11.449362546249638 46.542491908617166 104.28697505130162 C 0.0 **** -0.24
31742 H 11.081143811801454 46.1337102966356 103.34578243155966 H 0.0 **** 0.06
31743 H 11.057440375284667 45.953414551253246 105.1159520278861 H 0.0 **** 0.06
31744 H 11.119956102542265 47.576907663768424 104.38714207210148 H 0.0 **** 0.06
31745 H 12.538302218561142 46.50548618775207 104.29691904151596 H 0.0 **** 0.06
31746 C 66.63355879174907 22.82282844125811 93.25645063232281 C 0.0 **** -0.24
31747 H 66.10471075126372 22.045896129769034 92.70559055911025 H 0.0 **** 0.06
31748 H 65.95814847326255 23.657615932025607 93.44514282672841 H 0.0 **** 0.06
31749 H 67.48413011449537 23.169432246332775 92.67005728704902 H 0.0 **** 0.06
31750 H 66.98673432655949 22.41921578307668 94.20516070654062 H 0.0 **** 0.06
31751 C 61.44294929636063 86.4550138992293 104.75600635227613 C 0.0 **** -0.24
31752 H 62.05416093103947 85.77149921151627 105.34643928574306 H 0.0 **** 0.06
31753 H 60.38894351657718 86.27606127321707 104.97063345258888 H 0.0 **** 0.06
31754 H 61.631486361388035 86.28569029959877 103.69494397276785 H 0.0 **** 0.06
31755 H 61.69785903497782 87.48279389521522 105.01131043907782 H 0.0 **** 0.06
31756 C 24.492905057333076 17.074276042089707 33.64378266903648 C 0.0 **** -0.24
31757 H 24.833731705680407 18.055264233484138 33.974264600668675 H 0.0 **** 0.06
31758 H 25.350741439971273 16.476829912228084 33.333484608621745 H 0.0 **** 0.06
31759 H 23.807587757855742 17.19117355009945 32.80411895546868 H 0.0 **** 0.06
31760 H 23.979202837217315 16.57380188863334 34.46546977441491 H 0.0 **** 0.06
31761 C 115.60861709346108 9.91339722948669 115.6123466620059 C 0.0 **** -0.24
31762 H 115.33857691144325 8.953453741479223 115.1697453817425 H 0.0 **** 0.06
31763 H 115.1668975285579 10.720253445518722 115.02714424702671 H 0.0 **** 0.06
31764 H 116.69316665080204 10.018009708656152 115.61627096646293 H 0.0 **** 0.06
31765 H 115.23550291156793 9.958667443523481 116.63495084509934 H 0.0 **** 0.06
31766 C 16.766780909928087 27.02402750464887 58.07385437971953 C 0.0 **** -0.24
31767 H 16.204344328430196 26.557402571817818 58.881837770614105 H 0.0 **** 0.06
31768 H 17.131518556378467 27.99805084905185 58.40091855582056 H 0.0 **** 0.06
31769 H 16.119260537322106 27.150388225001933 57.20611864390032 H 0.0 **** 0.06
31770 H 17.61254216803711 26.390187023808352 57.807379047262295 H 0.0 **** 0.06
31771 C 11.874050522080317 113.21641794457031 30.122354886745256 C 0.0 **** -0.24
31772 H 11.000988930327377 113.17004841667656 30.774407318466274 H 0.0 **** 0.06
31773 H 12.217173403300915 114.2480713596073 30.047783740148816 H 0.0 **** 0.06
31774 H 11.60697080107919 112.84970871760974 29.131945047105944 H 0.0 **** 0.06
31775 H 12.669568089331587 112.5970824785889 30.53776720924276 H 0.0 **** 0.06
31776 C 59.60279465874805 102.99055752594293 64.26035802385093 C 0.0 **** -0.24
31777 H 59.219670174536674 103.47461477287217 63.361966582216844 H 0.0 **** 0.06
31778 H 60.368989079747536 103.6196830634808 64.71355460426966 H 0.0 **** 0.06
31779 H 60.03392976277752 102.02453797868762 63.995868373245294 H 0.0 **** 0.06
31780 H 58.7878629762707 102.84184342135379 64.96829120744033 H 0.0 **** 0.06
31781 C 62.987726056259106 42.37219182393525 38.19918088818258 C 0.0 **** -0.24
31782 H 63.05346847543896 42.48617948217777 37.11733862154486 H 0.0 **** 0.06
31783 H 62.14988771234121 41.71693128105127 38.44432918869465 H 0.0 **** 0.06
31784 H 62.8325303662057 43.34795128115952 38.659754180209205 H 0.0 **** 0.06
31785 H 63.91262541041041 41.93522111214197 38.5756284231276 H 0.0 **** 0.06
31786 C 32.20506736477654 66.73991455712138 33.561270652456066 C 0.0 **** -0.24
31787 H 33.19389998174526 67.04692620039145 33.89981575727431 H 0.0 **** 0.06
31788 H 32.0698687043312 65.6750126815327 33.7530239801261 H 0.0 **** 0.06
31789 H 32.112135825107586 66.9307237731582 32.49159378345654 H 0.0 **** 0.06
31790 H 31.444259295957792 67.30482500898611 34.09858075383405 H 0.0 **** 0.06
31791 C 11.297359415090085 108.33647762087591 23.643398610487168 C 0.0 **** -0.24
31792 H 11.467193818720176 108.50421678551234 22.579847100499478 H 0.0 **** 0.06
31793 H 10.594652570755159 109.08046375167908 24.020952309100892 H 0.0 **** 0.06
31794 H 12.241680911582705 108.42351368261257 24.180777992357093 H 0.0 **** 0.06
31795 H 10.884959863622768 107.33799759288274 23.793025765897852 H 0.0 **** 0.06
31796 C 112.49235671495236 27.795366964467064 88.11013397092472 C 0.0 **** -0.24
31797 H 112.13190994464703 28.32574376273533 88.99167214716752 H 0.0 **** 0.06
31798 H 112.34333805514441 26.724463386699483 88.2433625537997 H 0.0 **** 0.06
31799 H 113.55437496296568 28.00074183772483 87.97193690517204 H 0.0 **** 0.06
31800 H 111.94043674050425 28.133089431188864 87.23215280654236 H 0.0 **** 0.06
31801 C 91.64724983922508 47.77190081529204 25.74019710885627 C 0.0 **** -0.24
31802 H 90.96451346038924 48.29120943902137 25.068419990219645 H 0.0 **** 0.06
31803 H 92.32362490901724 47.1465542002955 25.15820974480009 H 0.0 **** 0.06
31804 H 91.07571099169166 47.14860462928823 26.42862374448297 H 0.0 **** 0.06
31805 H 92.22427297831823 48.503561460728434 26.307213916510484 H 0.0 **** 0.06
31806 C 101.09584324948554 57.654345821883965 30.328049393844623 C 0.0 **** -0.24
31807 H 101.93722131791478 57.30878588508807 30.929688247910462 H 0.0 **** 0.06
31808 H 101.03411837813263 57.06017226378657 29.415439465317363 H 0.0 **** 0.06
31809 H 101.23945551359245 58.703450269086375 30.070518210009126 H 0.0 **** 0.06
31810 H 100.17345156007934 57.543030523068865 30.897758461093396 H 0.0 **** 0.06
31811 C 78.37324095660591 66.51541993509531 48.09869062500478 C 0.0 **** -0.24
31812 H 78.73217899294076 67.47929084025361 47.737218142952685 H 0.0 **** 0.06
31813 H 78.9955274639276 65.7196067184075 47.68895557410903 H 0.0 **** 0.06
31814 H 77.34123286841617 66.36940520693028 47.782524739770025 H 0.0 **** 0.06
31815 H 78.42588241132762 66.49408406115708 49.18749531775933 H 0.0 **** 0.06
31816 C 54.232145891125214 65.88486627892004 63.701005515880134 C 0.0 **** -0.24
31817 H 54.75810568809618 65.38371473384763 62.88890555951706 H 0.0 **** 0.06
31818 H 54.46108335028572 66.95051740933602 63.67999850722955 H 0.0 **** 0.06
31819 H 54.55027303179227 65.46321590368757 64.65392733211002 H 0.0 **** 0.06
31820 H 53.15813450441843 65.74189666764315 63.581083835220234 H 0.0 **** 0.06
31821 C 43.86345652406709 3.2848525345930852 55.472816046639025 C 0.0 **** -0.24
31822 H 44.872366525560665 2.8987168722266574 55.327049682696895 H 0.0 **** 0.06
31823 H 43.237838180232586 2.9920379315944956 54.62976489271085 H 0.0 **** 0.06
31824 H 43.89819187227167 4.372608323425709 55.53959036609939 H 0.0 **** 0.06
31825 H 43.44776419922371 2.8766140780718388 56.3943817014254 H 0.0 **** 0.06
31826 C 112.72760479406602 66.70591338132164 86.45783643956457 C 0.0 **** -0.24
31827 H 111.78935449105019 66.90927938245284 86.97461844434653 H 0.0 **** 0.06
31828 H 112.72843347853123 67.21501623766807 85.49358719265317 H 0.0 **** 0.06
31829 H 112.83143226652608 65.63244538604914 86.30277119654286 H 0.0 **** 0.06
31830 H 113.55993197754906 67.06897930730526 87.06182620187957 H 0.0 **** 0.06
31831 C 67.20585576607942 82.2836673224858 55.4869482971078 C 0.0 **** -0.24
31832 H 66.96310427167083 82.79014578844689 54.55274208548415 H 0.0 **** 0.06
31833 H 67.52335350640013 83.01920518547388 56.22673357700855 H 0.0 **** 0.06
31834 H 68.01294419812226 81.57061135368457 55.31421293606634 H 0.0 **** 0.06
31835 H 66.32613208619708 81.75554224043407 55.853184619253405 H 0.0 **** 0.06
31836 C 15.563609828975558 28.9301179910657 107.82989339641833 C 0.0 **** -0.24
31837 H 16.552909725432357 28.909349028776653 108.28568200960254 H 0.0 **** 0.06
31838 H 14.884188987703055 29.502428427836826 108.46251186166047 H 0.0 **** 0.06
31839 H 15.190980461630517 27.910795958719063 107.7252418029872 H 0.0 **** 0.06
31840 H 15.626117869264505 29.397026185687494 106.84656258160445 H 0.0 **** 0.06
31841 C 79.36852669550368 15.760716419354011 79.6034863230037 C 0.0 **** -0.24
31842 H 79.76334925077532 15.721678305125138 80.61882525828744 H 0.0 **** 0.06
31843 H 78.57197443670225 16.50396014971004 79.55322402306356 H 0.0 **** 0.06
31844 H 78.97128921571581 14.78349145327293 79.32970412203935 H 0.0 **** 0.06
31845 H 80.16648803688676 16.035458441604618 78.91361351813293 H 0.0 **** 0.06
31846 C 72.78530280668514 110.15068168077143 30.067679821728404 C 0.0 **** -0.24
31847 H 71.72964057356447 110.37508329021225 29.915446041321474 H 0.0 **** 0.06
31848 H 72.89852088040391 109.10008162055948 30.33470067028962 H 0.0 **** 0.06
31849 H 73.17664738465902 110.77422653516587 30.87267690871299 H 0.0 **** 0.06
31850 H 73.3360382304457 110.35474239973824 29.14986740275549 H 0.0 **** 0.06
31851 C 38.46253949426651 36.386477170921154 91.09214923907965 C 0.0 **** -0.24
31852 H 38.00869059259168 36.86878480377473 90.22685423593867 H 0.0 **** 0.06
31853 H 37.980427761759415 36.74539529524063 92.00231027557084 H 0.0 **** 0.06
31854 H 39.52563113181327 36.6253603022503 91.12641295842079 H 0.0 **** 0.06
31855 H 38.33492225426477 35.307275590839396 91.01524225800563 H 0.0 **** 0.06
31856 C 59.165492253603986 76.75029647197522 73.31156786872683 C 0.0 **** -0.24
31857 H 58.20604415221828 76.2359969193088 73.24448314701945 H 0.0 **** 0.06
31858 H 59.485547798853474 76.78659459010734 74.35237370921365 H 0.0 **** 0.06
31859 H 59.06171383344372 77.76413534197243 72.92626578970652 H 0.0 **** 0.06
31860 H 59.90810773351001 76.21149403863805 72.72144562376388 H 0.0 **** 0.06
31861 C 22.53859772020928 2.1836058832570604 71.8656001432976 C 0.0 **** -0.24
31862 H 22.09571069355448 3.178457463301065 71.82261923215034 H 0.0 **** 0.06
31863 H 23.520110596507152 2.2023860275321354 71.39215982880398 H 0.0 **** 0.06
31864 H 21.89576833955678 1.475823087948113 71.34185603589864 H 0.0 **** 0.06
31865 H 22.643685254833997 1.876839085862029 72.90693860437207 H 0.0 **** 0.06
31866 C 94.98721399109348 68.08319450236732 10.028879303874248 C 0.0 **** -0.24
31867 H 94.4426248655804 68.18976602962815 9.090663356473783 H 0.0 **** 0.06
31868 H 95.62172424386179 67.1984012603067 9.981333524028287 H 0.0 **** 0.06
31869 H 94.27773139615923 67.97824407224746 10.849487493658614 H 0.0 **** 0.06
31870 H 95.60497126042205 68.96565245105538 10.192921498768214 H 0.0 **** 0.06
31871 C 56.76807051214598 81.049363909884 14.015285510839476 C 0.0 **** -0.24
31872 H 55.916378953694846 81.72202778070587 13.90929103573049 H 0.0 **** 0.06
31873 H 56.85991263085768 80.43611911429846 13.118268860161265 H 0.0 **** 0.06
31874 H 56.617129060016055 80.40618193653142 14.881823766813397 H 0.0 **** 0.06
31875 H 57.678302422839835 81.63488009572254 14.150488021468348 H 0.0 **** 0.06
31876 C 75.20945170314107 23.50239183494672 31.2879765707184 C 0.0 **** -0.24
31877 H 75.24793855762454 24.281416417800713 32.04926982333967 H 0.0 **** 0.06
31878 H 75.49054202290495 22.546824144205758 31.732482677496705 H 0.0 **** 0.06
31879 H 75.90064036807598 23.747110681744658 30.48236761125088 H 0.0 **** 0.06
31880 H 74.19684147536691 23.434322060601033 30.89014996533774 H 0.0 **** 0.06
31881 C 70.85670719551851 70.48576765423553 13.628283166835729 C 0.0 **** -0.24
31882 H 71.54587567709623 70.61132746847909 14.464234472452404 H 0.0 **** 0.06
31883 H 71.3152219411416 70.87569907623191 12.719392252204557 H 0.0 **** 0.06
31884 H 69.9340423035413 71.0281991698069 13.833408702143856 H 0.0 **** 0.06
31885 H 70.63485843655727 69.42623223361346 13.498183881974967 H 0.0 **** 0.06
31886 C 7.639200031432239 49.41597420535791 36.979768467780616 C 0.0 **** -0.24
31887 H 7.296538584344731 50.34770087527511 36.529604592107184 H 0.0 **** 0.06
31888 H 8.693289764917608 49.26571967433293 36.74551134113431 H 0.0 **** 0.06
31889 H 7.056376866998974 48.586051608577804 36.58198646046544 H 0.0 **** 0.06
31890 H 7.510453480918557 49.466134433824465 38.0605372623747 H 0.0 **** 0.06
31891 C 11.161614570738124 32.54732963464389 111.94877279059696 C 0.0 **** -0.24
31892 H 10.736289854226456 32.41584439017012 110.95311543801796 H 0.0 **** 0.06
31893 H 11.768670748610873 31.678258621556836 112.20217825891183 H 0.0 **** 0.06
31894 H 10.356300954224238 32.65336448965908 112.67603174538532 H 0.0 **** 0.06
31895 H 11.783626420009739 33.44206993608947 111.96218885198653 H 0.0 **** 0.06
31896 C 41.48368224193845 92.82445962240917 93.24679169480854 C 0.0 **** -0.24
31897 H 41.61968325173618 91.8053470675836 92.88587862046262 H 0.0 **** 0.06
31898 H 40.63343372143578 92.85792076533716 93.92872778217918 H 0.0 **** 0.06
31899 H 41.29864646920484 93.48756025491016 92.4023716485944 H 0.0 **** 0.06
31900 H 42.383574486692424 93.14737259481817 93.77141269631329 H 0.0 **** 0.06
31901 C 24.085928146530705 70.23930244797023 92.09725952228052 C 0.0 **** -0.24
31902 H 24.855931322414833 70.17545252506937 92.86527071196082 H 0.0 **** 0.06
31903 H 24.555974145086772 70.34605562723581 91.11963613756967 H 0.0 **** 0.06
31904 H 23.450455148880586 71.10358631125189 92.2903435395117 H 0.0 **** 0.06
31905 H 23.4801929841897 69.33270899497933 92.11323594968883 H 0.0 **** 0.06
31906 C 31.70686073483168 52.66423772833309 52.80944227173069 C 0.0 **** -0.24
31907 H 31.670822389707098 52.10510571294492 53.743848784347335 H 0.0 **** 0.06
31908 H 32.17384988922886 53.63391769257231 52.984581975571274 H 0.0 **** 0.06
31909 H 30.693111875798266 52.81187892353313 52.43528405189599 H 0.0 **** 0.06
31910 H 32.287993212468564 52.1074582120434 52.07516745405715 H 0.0 **** 0.06
31911 C 87.2340365231455 11.231091944743778 28.77802248743845 C 0.0 **** -0.24
31912 H 87.60038726284392 10.939363484354644 29.76244598570088 H 0.0 **** 0.06
31913 H 87.95901357648279 11.89215960700962 28.302622852812732 H 0.0 **** 0.06
31914 H 86.28202751736262 11.749902122854586 28.883775662605274 H 0.0 **** 0.06
31915 H 87.09642276521242 10.340508864025857 28.163658362940907 H 0.0 **** 0.06
31916 C 87.20793073855452 43.02654369291679 100.70632183226908 C 0.0 **** -0.24
31917 H 86.43425129281019 42.270456259821515 100.84668201612735 H 0.0 **** 0.06
31918 H 87.56548816522002 43.36395483775971 101.6795481242456 H 0.0 **** 0.06
31919 H 86.79336371396744 43.87150126323195 100.15793897218072 H 0.0 **** 0.06
31920 H 88.03665185087169 42.5981788777147 100.14278757999858 H 0.0 **** 0.06
31921 C 49.39966179032004 21.396059448350087 83.72626448607343 C 0.0 **** -0.24
31922 H 49.96181764830179 20.62913396328682 84.26052766625824 H 0.0 **** 0.06
31923 H 48.86126646008961 22.015917715947324 84.44357626791796 H 0.0 **** 0.06
31924 H 48.68885579252438 20.920390820738845 83.0500291749808 H 0.0 **** 0.06
31925 H 50.087869323710294 22.01669744204932 83.15272737524069 H 0.0 **** 0.06
31926 C 15.739136281341093 67.8353353081188 57.4993051892745 C 0.0 **** -0.24
31927 H 15.955910973170486 67.18805173885784 58.349647905021946 H 0.0 **** 0.06
31928 H 16.62117918045193 67.90510081917785 56.862508456552796 H 0.0 **** 0.06
31929 H 15.471982038042732 68.82909786357996 57.8594323742711 H 0.0 **** 0.06
31930 H 14.90892441654669 67.42000265729268 56.9280941861686 H 0.0 **** 0.06
31931 C 66.92405304077641 53.9022352373606 87.67781522671012 C 0.0 **** -0.24
31932 H 67.57010025602034 54.72903265238928 87.97525610018133 H 0.0 **** 0.06
31933 H 67.05154207878917 53.07388817312155 88.37570972515095 H 0.0 **** 0.06
31934 H 67.19132922938701 53.5766279052709 86.67315946806636 H 0.0 **** 0.06
31935 H 65.884744709963 54.23145218011344 87.68987331712435 H 0.0 **** 0.06
31936 C 24.251787495614636 33.300064286723554 111.75136016294535 C 0.0 **** -0.24
31937 H 24.617861693242276 33.92578140191824 110.93731609502319 H 0.0 **** 0.06
31938 H 23.1703814982354 33.415066040760905 111.83893733014555 H 0.0 **** 0.06
31939 H 24.725849414788826 33.60414308245029 112.68467219960708 H 0.0 **** 0.06
31940 H 24.490629340754438 32.25752433730608 111.54460448647536 H 0.0 **** 0.06
31941 C 43.06666209940826 68.2671469277526 66.82944541725931 C 0.0 **** -0.24
31942 H 43.48523595737714 67.9370464860674 67.78057928328406 H 0.0 **** 0.06
31943 H 43.6765060328175 69.07626340546744 66.42685021096793 H 0.0 **** 0.06
31944 H 42.04756338153433 68.62173319511919 66.98520604696398 H 0.0 **** 0.06
31945 H 43.05845883988579 67.43335722491645 66.12871273030919 H 0.0 **** 0.06
31946 C 30.90319308954912 27.934806542914906 59.594393381400664 C 0.0 **** -0.24
31947 H 30.078225636799687 27.290100760885466 59.897086471113084 H 0.0 **** 0.06
31948 H 30.893883068773732 28.051693739719077 58.51064355725782 H 0.0 **** 0.06
31949 H 31.84674901993037 27.48583560870221 59.903620217925436 H 0.0 **** 0.06
31950 H 30.793123881103952 28.91118932665198 60.066680811866945 H 0.0 **** 0.06
31951 C 29.36739564731795 98.0544140496308 95.03590980442539 C 0.0 **** -0.24
31952 H 30.204640582790205 97.5523869583655 95.52092804292087 H 0.0 **** 0.06
31953 H 28.84384630013909 98.67476895301868 95.76346794696792 H 0.0 **** 0.06
31954 H 28.68146023949663 97.30853776661564 94.63289588513436 H 0.0 **** 0.06
31955 H 29.740615810836232 98.68060840596587 94.22524937563583 H 0.0 **** 0.06
31956 C 30.52734074841147 72.52378784722166 9.878930060594058 C 0.0 **** -0.24
31957 H 31.17976452673242 73.39634908720765 9.9253533681985 H 0.0 **** 0.06
31958 H 30.776230087861293 71.92963178568428 8.999419025982945 H 0.0 **** 0.06
31959 H 29.48888727784594 72.84970418470891 9.816930738542993 H 0.0 **** 0.06
31960 H 30.66533194291098 71.91991485896207 10.776269938898679 H 0.0 **** 0.06
31961 C 17.395408332743926 96.22412657265934 60.50044742414541 C 0.0 **** -0.24
31962 H 16.817730740795753 97.14806543391134 60.52638084818779 H 0.0 **** 0.06
31963 H 18.458055461713144 96.45865184353084 60.56385838525558 H 0.0 **** 0.06
31964 H 17.193553460855952 95.69572755205942 59.568421629859735 H 0.0 **** 0.06
31965 H 17.11131478964353 95.59425245715855 61.34305550869558 H 0.0 **** 0.06
31966 C 84.5996910064585 36.50680289809605 67.30450047665468 C 0.0 **** -0.24
31967 H 85.27951230543911 37.22787923081565 66.84932912650657 H 0.0 **** 0.06
31968 H 84.85702086456206 36.37745532506299 68.3556296306939 H 0.0 **** 0.06
31969 H 84.68680171662604 35.5506245724055 66.78784029859438 H 0.0 **** 0.06
31970 H 83.57639359510614 36.87185236048469 67.22242607722919 H 0.0 **** 0.06
31971 C 30.199063118604954 0.1904051428394382 38.43718110803068 C 0.0 **** -0.24
31972 H 29.482370464659454 0.886080560001119 37.99947072101998 H 0.0 **** 0.06
31973 H 31.206027351245638 0.5954329155022009 38.33712862724491 H 0.0 **** 0.06
31974 H 30.1379887019815 -0.7665007562930128 37.920100936469055 H 0.0 **** 0.06
31975 H 29.96830793122595 0.04880169660236788 39.4933508448292 H 0.0 **** 0.06
31976 C 16.526462672521262 50.30357955995048 50.17426886721979 C 0.0 **** -0.24
31977 H 16.56790341669148 51.311269990118255 49.760009690402654 H 0.0 **** 0.06
31978 H 17.15698382863664 49.640802432823385 49.581669077258276 H 0.0 **** 0.06
31979 H 15.497775794901287 49.944036715565346 50.15064236309454 H 0.0 **** 0.06
31980 H 16.882497476906394 50.32033518305629 51.204693281649966 H 0.0 **** 0.06
31981 C 66.23691615916721 54.003250667348226 75.45488082741514 C 0.0 **** -0.24
31982 H 65.24879950425452 54.2025882063447 75.86872372626982 H 0.0 **** 0.06
31983 H 66.32497298217413 52.942265899519754 75.22002488750172 H 0.0 **** 0.06
31984 H 66.99879463415988 54.27887136736214 76.18434186796514 H 0.0 **** 0.06
31985 H 66.37509751608042 54.58927719616622 74.54643282792375 H 0.0 **** 0.06
31986 C 78.98111606653316 40.26328219137841 54.12087823616173 C 0.0 **** -0.24
31987 H 79.08131836492464 41.07455963571704 53.40014364709822 H 0.0 **** 0.06
31988 H 77.92525229252823 40.018030231437024 54.24584734416936 H 0.0 **** 0.06
31989 H 79.39777801316268 40.574963561570144 55.078120342817215 H 0.0 **** 0.06
31990 H 79.51737090785201 39.38680909919711 53.75800692117309 H 0.0 **** 0.06
31991 C 1.247416067384222 65.19985677321353 14.402675632721994 C 0.0 **** -0.24
31992 H 0.8035484053599475 64.68260336968589 13.55156434140899 H 0.0 **** 0.06
31993 H 2.267879847014683 65.49583025142437 14.156041415669435 H 0.0 **** 0.06
31994 H 1.261192386728112 64.53353494709222 15.265283545903394 H 0.0 **** 0.06
31995 H 0.6576182724854789 66.08666549311118 14.636384570620763 H 0.0 **** 0.06
31996 C 32.57694532507418 37.92398937954988 83.33115034556178 C 0.0 **** -0.24
31997 H 32.662427947463584 37.48532182253177 84.32475106805782 H 0.0 **** 0.06
31998 H 31.885857028041073 38.76664199765469 83.3644750411244 H 0.0 **** 0.06
31999 H 32.20123104804611 37.1739097029714 82.63466684206077 H 0.0 **** 0.06
32000 H 33.55573405866215 38.268806378362456 82.99972804685447 H 0.0 **** 0.06
32001 C 31.752831822087444 10.252997110096118 42.64778759414128 C 0.0 **** -0.24
32002 H 31.099850035884373 10.519582028300334 41.81732556821029 H 0.0 **** 0.06
32003 H 31.628079118577432 10.975226757913845 43.45450691128522 H 0.0 **** 0.06
32004 H 32.78992561932779 10.259594362613228 42.310666007267656 H 0.0 **** 0.06
32005 H 31.494989395567757 9.256967626911546 43.008088208557496 H 0.0 **** 0.06
32006 C 32.36904456304924 87.95585194459753 86.85529846450015 C 0.0 **** -0.24
32007 H 31.53670377107585 88.63670983593144 87.02916109742134 H 0.0 **** 0.06
32008 H 32.799145103755194 88.15206863958565 85.87294591980213 H 0.0 **** 0.06
32009 H 32.012178010962515 86.92698683010525 86.89722435914481 H 0.0 **** 0.06
32010 H 33.12911358787008 88.10938646882073 87.62204369922378 H 0.0 **** 0.06
32011 C 107.30921151308962 8.040064530825106 97.30772378456743 C 0.0 **** -0.24
32012 H 106.25415137008991 7.923312199992665 97.5514569216158 H 0.0 **** 0.06
32013 H 107.73917094544746 7.064733173395837 97.07807048070097 H 0.0 **** 0.06
32014 H 107.83256650835125 8.476580522275924 98.15941058318805 H 0.0 **** 0.06
32015 H 107.41159838657245 8.694788400722729 96.44332720625951 H 0.0 **** 0.06
32016 C 30.92003007797541 106.17705996350614 31.73296549071776 C 0.0 **** -0.24
32017 H 30.70960808970142 107.22728594184866 31.52773873778773 H 0.0 **** 0.06
32018 H 31.086649758148212 106.04159778887046 32.80162579655851 H 0.0 **** 0.06
32019 H 31.810411276644572 105.87149726705977 31.184208096925744 H 0.0 **** 0.06
32020 H 30.071943430677607 105.56855959915663 31.416794032543038 H 0.0 **** 0.06
32021 C 4.579154647198067 85.66739612321274 105.19984502723952 C 0.0 **** -0.24
32022 H 4.848606309616187 84.80278473087381 104.5934673458118 H 0.0 **** 0.06
32023 H 4.31492887617982 86.50043816762278 104.54822191840634 H 0.0 **** 0.06
32024 H 5.425952520330526 85.94977519853953 105.82565282899913 H 0.0 **** 0.06
32025 H 3.7277280739638456 85.41673563763814 105.83282614484293 H 0.0 **** 0.06
32026 C 89.09102906644995 94.26552456147553 111.40536938605486 C 0.0 **** -0.24
32027 H 88.25736755805823 94.95437827520465 111.26820514618905 H 0.0 **** 0.06
32028 H 88.84980978052221 93.30831517486331 110.941377461838 H 0.0 **** 0.06
32029 H 89.26979459355977 94.11923414949018 112.47043086052498 H 0.0 **** 0.06
32030 H 89.9846297399198 94.68056860188514 110.93987694865312 H 0.0 **** 0.06
32031 C 69.45255646428666 37.0577518708389 70.6072507535331 C 0.0 **** -0.24
32032 H 69.29055777049453 36.1622653682264 71.20639118319082 H 0.0 **** 0.06
32033 H 68.87080149553614 37.88195525958443 71.02051691586439 H 0.0 **** 0.06
32034 H 69.13789042420456 36.869504737613255 69.58032752428903 H 0.0 **** 0.06
32035 H 70.51053469991152 37.3176860446261 70.62014192954183 H 0.0 **** 0.06
32036 C 18.426472076015074 91.11453730028921 75.77385923015336 C 0.0 **** -0.24
32037 H 18.130957151448285 90.49803410441552 76.62097936629522 H 0.0 **** 0.06
32038 H 17.54001790267654 91.55931779181157 75.32038889402438 H 0.0 **** 0.06
32039 H 18.940112329993866 90.49676039970569 75.03686575207661 H 0.0 **** 0.06
32040 H 19.09612354700721 91.9043054399636 76.11452352970957 H 0.0 **** 0.06
32041 C 7.020032716799676 35.369681840355724 105.38702014560135 C 0.0 **** -0.24
32042 H 6.532746458215968 35.17654114372647 104.4308068867569 H 0.0 **** 0.06
32043 H 7.6759690199875195 34.53405074370551 105.63458892708027 H 0.0 **** 0.06
32044 H 6.263646596980152 35.48013361184104 106.16397214008691 H 0.0 **** 0.06
32045 H 7.606922528876396 36.2848830572658 105.31746459346769 H 0.0 **** 0.06
32046 C 48.93953989977701 37.44348478863745 90.97566469861056 C 0.0 **** -0.24
32047 H 48.30818594874526 38.3055823061749 90.76032768570403 H 0.0 **** 0.06
32048 H 49.17546682799344 36.925006215321986 90.04654662328102 H 0.0 **** 0.06
32049 H 48.4118405944547 36.76608096660205 91.64716486926037 H 0.0 **** 0.06
32050 H 49.86217383903432 37.77860233120737 91.45061508760386 H 0.0 **** 0.06
32051 C 36.14214085682437 78.52823462580238 10.551949589814328 C 0.0 **** -0.24
32052 H 35.41168426455907 78.04985936901332 9.901113109876945 H 0.0 **** 0.06
32053 H 35.67505257643552 79.36610238673782 11.069811670490438 H 0.0 **** 0.06
32054 H 36.979885202364216 78.89014935867371 9.955265297115716 H 0.0 **** 0.06
32055 H 36.50417173925615 77.80535604631444 11.284227724308693 H 0.0 **** 0.06
32056 C 60.577518146257624 16.7819451270147 69.55197380365581 C 0.0 **** -0.24
32057 H 60.319144512266085 16.60487488812277 68.50862339315407 H 0.0 **** 0.06
32058 H 60.40339084801848 17.830332563002436 69.79711359278076 H 0.0 **** 0.06
32059 H 61.62879409303442 16.541717024030653 69.71180911582411 H 0.0 **** 0.06
32060 H 59.960553481168 16.15136675958065 70.19246151848483 H 0.0 **** 0.06
32061 C 54.036621290120834 75.90211932341663 21.20837250150427 C 0.0 **** -0.24
32062 H 53.48231699693486 75.03211918897358 21.55837878437174 H 0.0 **** 0.06
32063 H 53.35962401393955 76.57800107318192 20.686306902236367 H 0.0 **** 0.06
32064 H 54.82592006380884 75.58093474717728 20.52865352793205 H 0.0 **** 0.06
32065 H 54.4796727943217 76.41792227868746 22.06095722323613 H 0.0 **** 0.06
32066 C 104.35851836463979 20.118411473566088 16.317168476445744 C 0.0 **** -0.24
32067 H 103.9091142652639 20.942391387351684 15.763179301917233 H 0.0 **** 0.06
32068 H 104.2028880284148 20.272148912200933 17.385543893681017 H 0.0 **** 0.06
32069 H 105.42762281410916 20.080371914141615 16.107038370594296 H 0.0 **** 0.06
32070 H 103.89507255238988 19.179943871745383 16.01329434189074 H 0.0 **** 0.06
32071 C 67.70443476232012 86.75155962962864 79.8181556578337 C 0.0 **** -0.24
32072 H 67.82966782358454 86.87370768358196 80.89372920779508 H 0.0 **** 0.06
32073 H 67.95656001512359 85.7292361701642 79.53685590440077 H 0.0 **** 0.06
32074 H 68.3631624686088 87.4452879616203 79.29514819004265 H 0.0 **** 0.06
32075 H 66.66913378787848 86.95913757116375 79.54656535912483 H 0.0 **** 0.06
32076 C 67.09586400543208 103.74991696259855 16.07764309246494 C 0.0 **** -0.24
32077 H 66.21446321372159 103.56135162505021 16.690879380702285 H 0.0 **** 0.06
32078 H 67.25884540092602 104.82438285718243 15.997755472199941 H 0.0 **** 0.06
32079 H 66.94351798233123 103.32969448355033 15.083944107758356 H 0.0 **** 0.06
32080 H 67.96652427083757 103.28365980388708 16.539904911323305 H 0.0 **** 0.06
32081 C 20.85148522687982 101.91692828830296 65.94382959757661 C 0.0 **** -0.24
32082 H 20.66949007531436 102.03613559103789 64.87595023845756 H 0.0 **** 0.06
32083 H 20.47652224814235 102.79160195515254 66.47591863628992 H 0.0 **** 0.06
32084 H 21.92235133955646 101.81472597405028 66.12044623841228 H 0.0 **** 0.06
32085 H 20.337496079683657 101.02539612703686 66.3020173715679 H 0.0 **** 0.06
32086 C 64.58005952952453 92.4734597492425 109.5555451804492 C 0.0 **** -0.24
32087 H 63.66885980961263 92.36592019771393 108.96677841558605 H 0.0 **** 0.06
32088 H 64.36264863298612 93.04151269473755 110.4597394541448 H 0.0 **** 0.06
32089 H 65.33168507802071 92.99939763418664 108.96627242404082 H 0.0 **** 0.06
32090 H 64.95567269832159 91.48695139314128 109.82691755534398 H 0.0 **** 0.06
32091 C 12.556838791110408 69.89901340236011 109.02365566198017 C 0.0 **** -0.24
32092 H 12.486403757651317 69.00750569779208 109.64686340095588 H 0.0 **** 0.06
32093 H 12.178986271928807 70.75890773836863 109.57650569077347 H 0.0 **** 0.06
32094 H 11.963546809224624 69.75864458551814 108.12003173995586 H 0.0 **** 0.06
32095 H 13.598513697093267 70.07027774334634 108.75191149857667 H 0.0 **** 0.06
32096 C 36.14855792108255 6.573620917080035 0.02035304763526824 C 0.0 **** -0.24
32097 H 36.08069784944056 7.611930412239005 -0.30349465923400487 H 0.0 **** 0.06
32098 H 37.10462952922286 6.4109377682957955 0.5176620301773482 H 0.0 **** 0.06
32099 H 36.072242907014925 5.917497033225743 -0.8469804875390992 H 0.0 **** 0.06
32100 H 35.336154831946295 6.355177049610077 0.7129513601828137 H 0.0 **** 0.06
32101 C 96.32764136465099 30.928826311372575 41.20797776542105 C 0.0 **** -0.24
32102 H 96.49532097854933 30.203385226539638 40.41101049625274 H 0.0 **** 0.06
32103 H 95.60624676299346 31.675107365712165 40.87323987252793 H 0.0 **** 0.06
32104 H 97.2688523436756 31.418916962732908 41.45638064874751 H 0.0 **** 0.06
32105 H 95.94110995546984 30.41732854954506 42.089344011412805 H 0.0 **** 0.06
32106 C 0.9759684948017906 12.781743787268084 52.83714619935233 C 0.0 **** -0.24
32107 H 1.0279878197536334 13.507435859720005 52.025693210569 H 0.0 **** 0.06
32108 H 1.0600033728473477 13.298590688391727 53.79277287616533 H 0.0 **** 0.06
32109 H 1.7922929951555062 12.066345674705474 52.736792701357345 H 0.0 **** 0.06
32110 H 0.022915291862489084 12.25420830600197 52.79214726368682 H 0.0 **** 0.06
32111 C 111.17665068503231 41.60027243247727 42.235474592478056 C 0.0 **** -0.24
32112 H 110.09076229922753 41.662708324501835 42.16336948268892 H 0.0 **** 0.06
32113 H 111.6108920630185 42.57822283147365 42.03028115366408 H 0.0 **** 0.06
32114 H 111.54726006735507 40.87793905051953 41.50909035678362 H 0.0 **** 0.06
32115 H 111.45507683489456 41.28118991071173 43.24021596788998 H 0.0 **** 0.06
32116 C 6.388038203260759 69.44857622498034 107.85897246123878 C 0.0 **** -0.24
32117 H 6.87525105300786 68.58135247628536 108.30590605574685 H 0.0 **** 0.06
32118 H 6.239452951702578 69.271818503139 106.7931299925977 H 0.0 **** 0.06
32119 H 7.015478114060468 70.32877515958523 107.99754710514995 H 0.0 **** 0.06
32120 H 5.423384201958315 69.61037940923745 108.33959739967997 H 0.0 **** 0.06
32121 C 55.422911838883635 43.27068131717069 56.45236337263543 C 0.0 **** -0.24
32122 H 55.473630857993214 43.055855061271494 57.5205629434671 H 0.0 **** 0.06
32123 H 55.047380683709974 42.394099187505276 55.924135101333434 H 0.0 **** 0.06
32124 H 56.418426837701446 43.5183320311434 56.08393159134738 H 0.0 **** 0.06
32125 H 54.75294890705473 44.113141458877664 56.28276531434028 H 0.0 **** 0.06
32126 C 109.04823925989788 86.55510366899341 103.68978406776395 C 0.0 **** -0.24
32127 H 109.4783958311896 85.84961194546531 102.97911909760785 H 0.0 **** 0.06
32128 H 109.4460777387492 86.35602686752799 104.68460561288319 H 0.0 **** 0.06
32129 H 107.96378433091871 86.44208056453922 103.70236583218394 H 0.0 **** 0.06
32130 H 109.30403590437322 87.5720233505875 103.3927160856737 H 0.0 **** 0.06
32131 C 96.3571762795234 25.08234034214098 94.17160793642032 C 0.0 **** -0.24
32132 H 95.8145965962411 24.984112340053287 95.11151669553115 H 0.0 **** 0.06
32133 H 95.6543562582784 25.039056373524545 93.33967977167814 H 0.0 **** 0.06
32134 H 97.07836375444185 24.268824184270443 94.08208610390207 H 0.0 **** 0.06
32135 H 96.88332210513485 26.03729220254695 94.15465108600719 H 0.0 **** 0.06
32136 C 3.6276940536735083 42.482120891903776 64.7694563396559 C 0.0 **** -0.24
32137 H 3.8316069558114236 41.78949103911884 65.5854724719718 H 0.0 **** 0.06
32138 H 2.617767020144015 42.880524882220556 64.87491586393412 H 0.0 **** 0.06
32139 H 3.7140806368140318 41.95706848308012 63.81819176641909 H 0.0 **** 0.06
32140 H 4.34665094042947 43.30065791347755 64.7992738930713 H 0.0 **** 0.06
32141 C 48.306721113825105 0.38664369668900633 87.69479984344258 C 0.0 **** -0.24
32142 H 48.50636535994277 1.2567370767288963 88.31853418288216 H 0.0 **** 0.06
32143 H 47.33930076740618 -0.03933253746933474 87.96381504904292 H 0.0 **** 0.06
32144 H 49.0875974232069 -0.3584895965222046 87.84958866514711 H 0.0 **** 0.06
32145 H 48.293261637070245 0.6855453924461585 86.64662877492316 H 0.0 **** 0.06
32146 C 116.00553596274293 49.31795352062613 113.00513631268886 C 0.0 **** -0.24
32147 H 116.35300246715467 50.25014818211929 113.44945382380223 H 0.0 **** 0.06
32148 H 116.15819723296623 49.35137956956464 111.92532691510505 H 0.0 **** 0.06
32149 H 114.94473594821046 49.187138933369056 113.21822977032919 H 0.0 **** 0.06
32150 H 116.56682820140503 48.483009584848844 113.42592328771295 H 0.0 **** 0.06
32151 C 46.780670850642736 4.368138955008945 16.105598032951498 C 0.0 **** -0.24
32152 H 46.55032825579173 4.182750777785174 15.056319949731346 H 0.0 **** 0.06
32153 H 47.17855589900979 5.3764464856824645 16.21787602790921 H 0.0 **** 0.06
32154 H 47.521307768833395 3.6445217259664275 16.44784077684147 H 0.0 **** 0.06
32155 H 45.87213356825497 4.265840473124683 16.698979012414483 H 0.0 **** 0.06
32156 C 104.33074263592164 99.44920081390606 45.091691179340984 C 0.0 **** -0.24
32157 H 104.32412838909067 99.67818722595973 44.026036713837954 H 0.0 **** 0.06
32158 H 103.97865966698001 100.31609726335083 45.65136530710322 H 0.0 **** 0.06
32159 H 105.34531303965534 99.20175168217403 45.404176052264546 H 0.0 **** 0.06
32160 H 103.67394329759233 98.60032946677819 45.284211527426265 H 0.0 **** 0.06
32161 C 51.729706783436626 46.18080977383424 85.81149626122803 C 0.0 **** -0.24
32162 H 52.372137097456346 47.04695450685574 85.64956535349452 H 0.0 **** 0.06
32163 H 50.86256078836843 46.47710261889705 86.40172701149723 H 0.0 **** 0.06
32164 H 52.28645449262936 45.410672538764686 86.34496000622835 H 0.0 **** 0.06
32165 H 51.39874935919326 45.789354839795124 84.85009409618763 H 0.0 **** 0.06
32166 C 31.117297361251545 112.82223300581522 50.34247216821479 C 0.0 **** -0.24
32167 H 30.442988185527142 113.67409376747958 50.246277411439436 H 0.0 **** 0.06
32168 H 32.14917659167408 113.17168786233313 50.313137851724754 H 0.0 **** 0.06
32169 H 30.944485824066497 112.12817684743223 49.52053717571252 H 0.0 **** 0.06
32170 H 30.931108150243276 112.31760331433067 51.2901310600217 H 0.0 **** 0.06
32171 C 81.48804499576067 25.453692044910838 85.71064433813274 C 0.0 **** -0.24
32172 H 81.40579581031204 24.60916387329496 85.02726586315879 H 0.0 **** 0.06
32173 H 82.53990580201136 25.70310105751821 85.85546505581812 H 0.0 **** 0.06
32174 H 81.04203689029109 25.191037271555047 86.66918078706095 H 0.0 **** 0.06
32175 H 80.96573389921454 26.312976897183347 85.28964238457127 H 0.0 **** 0.06
32176 C 61.20053811688675 12.779673608890658 39.823677738703964 C 0.0 **** -0.24
32177 H 60.72142664591303 13.728513565760501 39.585122039499026 H 0.0 **** 0.06
32178 H 60.50338454299771 12.149536139970948 40.37657435645389 H 0.0 **** 0.06
32179 H 62.08668520320586 12.9623253951981 40.43257157610083 H 0.0 **** 0.06
32180 H 61.49065607543034 12.278319334633178 38.900442982761945 H 0.0 **** 0.06
32181 C 49.90400539697713 74.8384634388704 82.62996206792167 C 0.0 **** -0.24
32182 H 50.46007713377589 74.2616910339043 81.89155992501827 H 0.0 **** 0.06
32183 H 50.3631596901552 75.82027145385575 82.74576071421305 H 0.0 **** 0.06
32184 H 49.919203149507084 74.31517645399754 83.58622758981556 H 0.0 **** 0.06
32185 H 48.872751269809946 74.95607085544867 82.29767700292757 H 0.0 **** 0.06
32186 C 51.41183184231545 53.73314049100247 86.96900004528214 C 0.0 **** -0.24
32187 H 51.77995442203496 54.7410884970576 86.78039599633948 H 0.0 **** 0.06
32188 H 51.66316532026042 53.09033413896819 86.12501575909454 H 0.0 **** 0.06
32189 H 50.32886572548364 53.75948473378142 87.0958283646026 H 0.0 **** 0.06
32190 H 51.87325407365424 53.341138704412145 87.87537253389362 H 0.0 **** 0.06
32191 C 31.855202545578123 89.13110627006876 45.99880841450975 C 0.0 **** -0.24
32192 H 31.841529112927745 88.22766185072044 46.60776747143737 H 0.0 **** 0.06
32193 H 31.2206867395971 88.98970790550504 45.12332328250484 H 0.0 **** 0.06
32194 H 32.87665020875187 89.33662997314622 45.67800525398857 H 0.0 **** 0.06
32195 H 31.483216424268917 89.97103003671413 46.586012288021294 H 0.0 **** 0.06
32196 C 39.51189091439113 37.471223436424964 87.53433722482615 C 0.0 **** -0.24
32197 H 39.76725953568072 37.501033422833416 88.59352379480282 H 0.0 **** 0.06
32198 H 40.4081816886991 37.25356911585152 86.95116781006155 H 0.0 **** 0.06
32199 H 39.1062584660711 38.43645194676043 87.23165721471099 H 0.0 **** 0.06
32200 H 38.76810109536686 36.69364070082469 87.36197792410874 H 0.0 **** 0.06
32201 C 95.79067463658373 19.04070520028513 86.98438529386056 C 0.0 **** -0.24
32202 H 94.74911027246833 18.943320937599154 87.2908587112257 H 0.0 **** 0.06
32203 H 96.40722151372145 18.358777963220362 87.57048271713478 H 0.0 **** 0.06
32204 H 96.12325841377665 20.06614541906619 87.14905593814623 H 0.0 **** 0.06
32205 H 95.88155889665853 18.79498520929738 85.925584181662 H 0.0 **** 0.06
32206 C 58.70564487376749 90.09352295574112 28.95273656083637 C 0.0 **** -0.24
32207 H 57.79431872087097 89.9058398946026 29.520406949665187 H 0.0 **** 0.06
32208 H 58.45056439406789 90.29843307802244 27.91264819986236 H 0.0 **** 0.06
32209 H 59.352164331987304 89.21655073151001 29.002840043729663 H 0.0 **** 0.06
32210 H 59.2255320481438 90.9532681188293 29.37505105008836 H 0.0 **** 0.06
32211 C 13.469592563553718 12.62091564863232 101.28944257146586 C 0.0 **** -0.24
32212 H 12.768899035557325 12.46827845668929 100.46874383495947 H 0.0 **** 0.06
32213 H 13.842438408261017 13.645139067357576 101.26210450105808 H 0.0 **** 0.06
32214 H 14.304258411240454 11.927349847678556 101.18696148266687 H 0.0 **** 0.06
32215 H 12.963073646864757 12.442157166026078 102.23764398896813 H 0.0 **** 0.06
32216 C 2.570057732547099 26.127973719779504 52.861098203589144 C 0.0 **** -0.24
32217 H 3.1819506622384353 26.098574991756266 53.76170001436142 H 0.0 **** 0.06
32218 H 3.2151453568568513 26.09028740009302 51.98268843300906 H 0.0 **** 0.06
32219 H 1.989362366852248 27.050536453721975 52.84654193579111 H 0.0 **** 0.06
32220 H 1.8938381503240578 25.27343157090064 52.85311526588666 H 0.0 **** 0.06
32221 C 5.645969133929569 5.108445910042448 74.54449758978365 C 0.0 **** -0.24
32222 H 6.403581786059661 5.199925941870802 73.7661863159019 H 0.0 **** 0.06
32223 H 6.076512604227318 5.3909765973897805 75.50601919108624 H 0.0 **** 0.06
32224 H 5.296991124649509 4.076821142783231 74.59187547698025 H 0.0 **** 0.06
32225 H 4.807844006211241 5.765407432158611 74.31459168568784 H 0.0 **** 0.06
32226 C 97.66678336330403 79.59886238819922 24.337134447496 C 0.0 **** -0.24
32227 H 97.84853851069278 80.1068677367588 23.389832162177328 H 0.0 **** 0.06
32228 H 97.57714050959072 78.52609614128681 24.162506911235624 H 0.0 **** 0.06
32229 H 96.74302946079416 79.97399748578903 24.777979508979882 H 0.0 **** 0.06
32230 H 98.49752320971396 79.78878315376588 25.016194334621417 H 0.0 **** 0.06
32231 C 17.785463356614514 23.26774320826661 40.39352785740991 C 0.0 **** -0.24
32232 H 17.930686666869093 23.706153433536343 39.40629656781218 H 0.0 **** 0.06
32233 H 18.36111428094526 23.829392363089624 41.129093756987174 H 0.0 **** 0.06
32234 H 18.12077623654426 22.230944729553954 40.38289219408074 H 0.0 **** 0.06
32235 H 16.727117042012964 23.30525510474675 40.65496810488477 H 0.0 **** 0.06
32236 C 16.733692866886088 87.3940690907182 39.09172869842831 C 0.0 **** -0.24
32237 H 17.207818568446157 87.7107677912754 38.16180245444434 H 0.0 **** 0.06
32238 H 16.178463212951016 88.2300797061379 39.517804142721104 H 0.0 **** 0.06
32239 H 17.497518442075034 87.06742916486667 39.79620489855972 H 0.0 **** 0.06
32240 H 16.04956206512324 86.56959889940268 38.888027978402135 H 0.0 **** 0.06
32241 C 98.9678228894339 111.589271376517 55.907626107842866 C 0.0 **** -0.24
32242 H 99.34206176891377 110.88265362017222 55.16767577005348 H 0.0 **** 0.06
32243 H 98.77595202764331 111.0662212756528 56.84450237044572 H 0.0 **** 0.06
32244 H 98.04192030882572 112.03771475965534 55.54557364130714 H 0.0 **** 0.06
32245 H 99.70966463347168 112.36986062809169 56.07189761224695 H 0.0 **** 0.06
32246 C 111.82899388761547 85.11185788737018 64.05541481370176 C 0.0 **** -0.24
32247 H 112.82637862147493 85.54930972976786 64.03212401894348 H 0.0 **** 0.06
32248 H 111.15207332717267 85.77902723904288 64.59052757565382 H 0.0 **** 0.06
32249 H 111.8666693447617 84.14860530146538 64.5634383742028 H 0.0 **** 0.06
32250 H 111.47019702862934 84.97080568421393 63.03625338886462 H 0.0 **** 0.06
32251 C 106.16836110980378 16.369232714643573 39.29889450467675 C 0.0 **** -0.24
32252 H 107.07412450270346 16.890947507715566 38.98857795377626 H 0.0 **** 0.06
32253 H 105.41140054952461 17.097279563781342 39.5884137423194 H 0.0 **** 0.06
32254 H 106.39508348984452 15.722102161055858 40.14592694072604 H 0.0 **** 0.06
32255 H 105.79630882901947 15.766563243988827 38.470437162758515 H 0.0 **** 0.06
32256 C 86.2142044559348 36.26441205244345 81.04518031365211 C 0.0 **** -0.24
32257 H 85.40098004172751 36.23114097921144 81.77041273883844 H 0.0 **** 0.06
32258 H 86.99722170185959 35.56850910636884 81.34609398635408 H 0.0 **** 0.06
32259 H 86.62134336434576 37.274072378346524 81.00219382481075 H 0.0 **** 0.06
32260 H 85.83536931873931 35.983039216863105 80.06278975350759 H 0.0 **** 0.06
32261 C 2.2812052837998067 85.46464555984241 54.64158225365545 C 0.0 **** -0.24
32262 H 2.8843712506047723 84.56502842466267 54.759944981742976 H 0.0 **** 0.06
32263 H 2.0067211511022833 85.58178105810507 53.59260047212156 H 0.0 **** 0.06
32264 H 2.855475884588998 86.33208075942176 54.96651670869108 H 0.0 **** 0.06
32265 H 1.3783604454119995 85.37829693961808 55.2462458664936 H 0.0 **** 0.06
32266 C 16.206074558407522 12.557742230820935 41.416020834003916 C 0.0 **** -0.24
32267 H 16.594703861541745 11.540009187704769 41.36813825654667 H 0.0 **** 0.06
32268 H 16.36375333504367 13.051770552835386 40.45687463486621 H 0.0 **** 0.06
32269 H 16.72639301238405 13.10812598249235 42.19946282858638 H 0.0 **** 0.06
32270 H 15.139502423305771 12.528634213518771 41.639295506196675 H 0.0 **** 0.06
32271 C 51.58437260792948 46.42584288681862 106.49150284274998 C 0.0 **** -0.24
32272 H 51.79711472572942 47.3704282206048 105.99077006829049 H 0.0 **** 0.06
32273 H 52.00122230457841 46.4472888696091 107.49934383900597 H 0.0 **** 0.06
32274 H 52.033706709096926 45.607925501353755 105.92876049461293 H 0.0 **** 0.06
32275 H 50.50582630358622 46.27993230031579 106.5470987844559 H 0.0 **** 0.06
32276 C 62.983315054764184 51.342461004781896 98.27151175051222 C 0.0 **** -0.24
32277 H 63.755345443718745 50.825016336692954 97.70148184360369 H 0.0 **** 0.06
32278 H 62.7793085883038 50.792588981947915 99.1898831588833 H 0.0 **** 0.06
32279 H 62.072399290450015 51.40396891192108 97.67555768488285 H 0.0 **** 0.06
32280 H 63.32560033513973 52.3483034074584 98.51697228232945 H 0.0 **** 0.06
32281 C 13.637959288804502 15.740217985073997 36.110075844553045 C 0.0 **** -0.24
32282 H 14.133679868846983 16.540004644547594 36.66052056261328 H 0.0 **** 0.06
32283 H 14.31304500693114 14.888671929504255 36.02134822236799 H 0.0 **** 0.06
32284 H 13.369284007751013 16.09600226744672 35.115035570077815 H 0.0 **** 0.06
32285 H 12.736805148673938 15.436409328341 36.64239948714061 H 0.0 **** 0.06
32286 C 38.75155437892164 86.3757070640194 39.69051181680078 C 0.0 **** -0.24
32287 H 38.7157089761929 85.32838066141 39.98728171291225 H 0.0 **** 0.06
32288 H 39.746928813517 86.77508470772099 39.888454425642465 H 0.0 **** 0.06
32289 H 38.01400298261336 86.94074774832873 40.26077925300149 H 0.0 **** 0.06
32290 H 38.53067693804883 86.46102284402878 38.62694362943529 H 0.0 **** 0.06
32291 C 84.27341059870218 60.85488082097757 101.66418602117173 C 0.0 **** -0.24
32292 H 83.68904863370659 60.306230342578914 102.40230909111685 H 0.0 **** 0.06
32293 H 84.39733096308854 61.88695155995052 101.99414931269968 H 0.0 **** 0.06
32294 H 83.75571058830326 60.83911308933267 100.70567625110164 H 0.0 **** 0.06
32295 H 85.25293492630607 60.38754388542927 101.55660663880454 H 0.0 **** 0.06
32296 C 17.509125595589296 35.71027092835868 1.6817789999728063 C 0.0 **** -0.24
32297 H 17.08598931599792 35.46934584615627 2.6575765336386326 H 0.0 **** 0.06
32298 H 18.56514651195286 35.95433854397214 1.7950431074379765 H 0.0 **** 0.06
32299 H 16.981942077775102 36.56618237704913 1.2592672850389874 H 0.0 **** 0.06
32300 H 17.40211411798063 34.852774946875 1.0180319813516405 H 0.0 **** 0.06
32301 C 31.316209938069946 17.16685136405067 33.47833999271805 C 0.0 **** -0.24
32302 H 30.59488047463693 17.94620146992827 33.722452950167536 H 0.0 **** 0.06
32303 H 30.793491408952946 16.304222726482863 33.06385332255138 H 0.0 **** 0.06
32304 H 31.849858890329372 16.869814059477278 34.380855681486594 H 0.0 **** 0.06
32305 H 32.02749559935303 17.54791473731609 32.744911445333 H 0.0 **** 0.06
32306 C 50.79108431082949 112.09178726749855 18.64911555383344 C 0.0 **** -0.24
32307 H 49.865842024036965 111.52574656561988 18.754891611464018 H 0.0 **** 0.06
32308 H 50.654738403454814 112.87389293168519 17.90250691088096 H 0.0 **** 0.06
32309 H 51.591210727346436 111.42185680369253 18.333193256503876 H 0.0 **** 0.06
32310 H 51.05193777144126 112.5428984545043 19.606080594658124 H 0.0 **** 0.06
32311 C 101.1093507984279 67.07062127719826 98.78291219073787 C 0.0 **** -0.24
32312 H 101.44186492580394 67.98872684225375 98.29937269405679 H 0.0 **** 0.06
32313 H 100.04347318954007 66.93029927794578 98.60253026960385 H 0.0 **** 0.06
32314 H 101.29050903164068 67.1371180293105 99.8549792374726 H 0.0 **** 0.06
32315 H 101.66183333998478 66.22439341482243 98.37330692921913 H 0.0 **** 0.06
32316 C 28.80213833633229 40.32254960289232 107.44159274861931 C 0.0 **** -0.24
32317 H 29.444571547323164 40.514887602023215 108.30063209770015 H 0.0 **** 0.06
32318 H 29.001981668283236 39.3227203367484 107.05562115167132 H 0.0 **** 0.06
32319 H 29.0049315558104 41.05930347985376 106.66455055006404 H 0.0 **** 0.06
32320 H 27.7580367832349 40.393169222012546 107.74578800891152 H 0.0 **** 0.06
32321 C 1.9616029288056893 3.409410556311343 95.6708044665209 C 0.0 **** -0.24
32322 H 2.1464912202357027 3.461910104238285 94.5977405820978 H 0.0 **** 0.06
32323 H 2.8570382139976402 3.0463196033815336 96.1758436829453 H 0.0 **** 0.06
32324 H 1.1334739666221196 2.727291706069707 95.86399680355751 H 0.0 **** 0.06
32325 H 1.709847847724518 4.401608416053023 96.04489901748465 H 0.0 **** 0.06
32326 C 91.3179023824315 16.09064182992006 52.469494180116044 C 0.0 **** -0.24
32327 H 92.39918490433905 16.01432186404554 52.58924979635921 H 0.0 **** 0.06
32328 H 90.82430339334974 15.585829259017487 53.29964069937872 H 0.0 **** 0.06
32329 H 91.02306681922556 15.62188465232299 51.530933242943 H 0.0 **** 0.06
32330 H 91.0271589440215 17.141015132506993 52.45757213664258 H 0.0 **** 0.06
32331 C 68.06953749656003 56.0866291545521 26.130887647549116 C 0.0 **** -0.24
32332 H 68.25384533621332 57.091420530019974 26.512633567118428 H 0.0 **** 0.06
32333 H 67.30112641424307 55.6041188439564 26.734800859094648 H 0.0 **** 0.06
32334 H 68.99009240295118 55.504840762264024 26.18049521895813 H 0.0 **** 0.06
32335 H 67.73375484355972 56.147696977579784 25.095963658087783 H 0.0 **** 0.06
32336 C 60.04642859674169 114.97246440825458 5.039681197027548 C 0.0 **** -0.24
32337 H 59.34314226147845 115.50816741910413 4.401382181640699 H 0.0 **** 0.06
32338 H 59.67541064670047 114.9706890841504 6.065167209873152 H 0.0 **** 0.06
32339 H 61.016521728117056 115.46580139978121 5.0042304401619475 H 0.0 **** 0.06
32340 H 60.147017433346974 113.94591373275799 4.687336819984296 H 0.0 **** 0.06
32341 C 43.63677674686673 8.844529392673621 114.75255508120856 C 0.0 **** -0.24
32342 H 44.31516004328796 9.477547915560251 114.17900323423945 H 0.0 **** 0.06
32343 H 42.80798063195496 8.532122917367474 114.11629944849383 H 0.0 **** 0.06
32344 H 43.24995261065476 9.40579061443242 115.60279143760494 H 0.0 **** 0.06
32345 H 44.17366866222011 7.966687201720447 115.10857190592395 H 0.0 **** 0.06
32346 C 11.760244244189806 114.04903066651812 1.4482713237959501 C 0.0 **** -0.24
32347 H 12.029735529409958 113.74209267994986 0.43833399413824736 H 0.0 **** 0.06
32348 H 10.693268461076975 113.88782453040723 1.6046499357628932 H 0.0 **** 0.06
32349 H 11.991977007590826 115.10646220940819 1.579521013128499 H 0.0 **** 0.06
32350 H 12.32658762418394 113.4610245748555 2.1704894189329025 H 0.0 **** 0.06
32351 C 93.76443808848106 85.1351253362183 51.80467517852176 C 0.0 **** -0.24
32352 H 92.79535107495641 85.48313888715433 51.44866558729606 H 0.0 **** 0.06
32353 H 94.5431418667597 85.4666281584953 51.118077591979215 H 0.0 **** 0.06
32354 H 93.76329505856236 84.04620754503497 51.8554365361429 H 0.0 **** 0.06
32355 H 93.95544202927846 85.54496459232953 52.79725279991747 H 0.0 **** 0.06
32356 C 37.12990155843398 105.68346386433254 19.35259038317302 C 0.0 **** -0.24
32357 H 37.79139798784044 106.13429825304493 20.093548475400098 H 0.0 **** 0.06
32358 H 36.15899266249401 105.48431871994333 19.805915957713 H 0.0 **** 0.06
32359 H 37.56534694071245 104.74833225280156 18.999049423883797 H 0.0 **** 0.06
32360 H 37.00617511797009 106.3675731954616 18.512333143721236 H 0.0 **** 0.06
32361 C 34.16116262027461 88.24701332242688 57.69690062530219 C 0.0 **** -0.24
32362 H 34.793825258301666 87.57976269957769 57.11105457660858 H 0.0 **** 0.06
32363 H 34.11779239866178 89.2229463583453 57.21369913360792 H 0.0 **** 0.06
32364 H 34.57658461004482 88.35482017026277 58.697980601148316 H 0.0 **** 0.06
32365 H 33.156295444234075 87.82929203925895 57.76330006525873 H 0.0 **** 0.06
32366 C 48.544410302600596 52.48318675171913 71.16987591653609 C 0.0 **** -0.24
32367 H 49.43250640041401 51.8885080209634 71.38308350744424 H 0.0 **** 0.06
32368 H 48.34331348867164 52.46491133872274 70.09873818196712 H 0.0 **** 0.06
32369 H 48.70978708199268 53.51145145040641 71.49202528590214 H 0.0 **** 0.06
32370 H 47.69121442706774 52.06700167627902 71.70640718257005 H 0.0 **** 0.06
32371 C 74.43919179127923 114.31185176812835 61.26694554398397 C 0.0 **** -0.24
32372 H 74.25215126354064 114.27286795235733 60.19386117487344 H 0.0 **** 0.06
32373 H 73.5041382679234 114.15313559028158 61.804076853985414 H 0.0 **** 0.06
32374 H 74.84820252539927 115.28710904977171 61.52911984492756 H 0.0 **** 0.06
32375 H 75.15174496205015 113.53293203649001 61.53979539604294 H 0.0 **** 0.06
32376 C 95.05481160568826 94.84619218493981 12.710457739420733 C 0.0 **** -0.24
32377 H 94.09942715588383 95.04571760511288 12.224832222754046 H 0.0 **** 0.06
32378 H 95.35575602032506 95.71659352607068 13.292487688459545 H 0.0 **** 0.06
32379 H 95.8093412272045 94.63709525985061 11.951829689847315 H 0.0 **** 0.06
32380 H 94.95377206385558 93.98377219601858 13.36943023194803 H 0.0 **** 0.06
32381 C 47.612457012954536 2.733870848693087 92.03686224992555 C 0.0 **** -0.24
32382 H 47.99457809505657 2.282721467144441 91.12061624860166 H 0.0 **** 0.06
32383 H 46.530124034386866 2.845085687468284 91.961944793709 H 0.0 **** 0.06
32384 H 48.06948706101846 3.7140917903092543 92.17643470132268 H 0.0 **** 0.06
32385 H 47.85564385277294 2.094860394871503 92.88493576376771 H 0.0 **** 0.06
32386 C 2.2337146254735103 72.64011594226301 14.317245021579453 C 0.0 **** -0.24
32387 H 1.357642360547942 72.94123851287762 13.742434985723804 H 0.0 **** 0.06
32388 H 2.95710550751096 72.16493836900261 13.653752036624951 H 0.0 **** 0.06
32389 H 1.9336411411844665 71.93495281217866 15.092792485113222 H 0.0 **** 0.06
32390 H 2.6851664883610056 73.51779359002174 14.778611538117275 H 0.0 **** 0.06
32391 C 40.447970753937184 26.33107184098077 63.99328768122112 C 0.0 **** -0.24
32392 H 41.35383555895226 26.83435225558543 63.6559737042335 H 0.0 **** 0.06
32393 H 40.15702532338885 26.721867662906106 64.9690214687727 H 0.0 **** 0.06
32394 H 40.63465186311762 25.26026873826595 64.07234349506717 H 0.0 **** 0.06
32395 H 39.64551409224048 26.508148243064966 63.27619263775259 H 0.0 **** 0.06
32396 C 100.92909719019596 55.28537576689042 55.58691796364775 C 0.0 **** -0.24
32397 H 100.46405086571909 55.35912744914265 54.60387037069785 H 0.0 **** 0.06
32398 H 101.12403426823619 54.237968171482805 55.818725794266584 H 0.0 **** 0.06
32399 H 100.25936073044466 55.7051173325871 56.33799259427178 H 0.0 **** 0.06
32400 H 101.86836134152745 55.83868430041402 55.58762608842562 H 0.0 **** 0.06
32401 C 87.19559021156192 113.60712779995704 91.26194146062414 C 0.0 **** -0.24
32402 H 86.63249805518882 112.6776160978926 91.1767698867298 H 0.0 **** 0.06
32403 H 86.56473834149733 114.37281730581823 91.71452573020892 H 0.0 **** 0.06
32404 H 87.51006537028991 113.93440938098747 90.27107664128931 H 0.0 **** 0.06
32405 H 88.07449795562681 113.44418699388828 91.88603877755477 H 0.0 **** 0.06
32406 C 73.65409618502736 13.45489673103673 37.55952246929124 C 0.0 **** -0.24
32407 H 74.01264653442038 13.912647364891097 38.48194646031121 H 0.0 **** 0.06
32408 H 73.08951047974494 12.553446788438329 37.79654760631803 H 0.0 **** 0.06
32409 H 74.50404406508844 13.197181483069237 36.927998604967456 H 0.0 **** 0.06
32410 H 73.01070580254012 14.159084583831007 37.031405734161694 H 0.0 **** 0.06
32411 C 106.63389830489118 27.542694336509044 25.577729586833584 C 0.0 **** -0.24
32412 H 107.65746872654577 27.662371619337307 25.221489565263767 H 0.0 **** 0.06
32413 H 106.64532291553431 27.106642638633673 26.576518025728063 H 0.0 **** 0.06
32414 H 106.0880335893153 26.88659785214675 24.900285096276633 H 0.0 **** 0.06
32415 H 106.14620430997815 28.516856140548526 25.612346175821273 H 0.0 **** 0.06
32416 C 12.636602752771587 80.89879267176426 61.24304533557984 C 0.0 **** -0.24
32417 H 11.849934343573313 81.65110149296422 61.29012138731034 H 0.0 **** 0.06
32418 H 12.415347157731972 80.0974033482106 61.94831911740663 H 0.0 **** 0.06
32419 H 13.592623043262211 81.35512943499711 61.500474841164284 H 0.0 **** 0.06
32420 H 12.689489303611868 80.49147025906237 60.23309362116512 H 0.0 **** 0.06
32421 C 41.357795963878516 51.61140691317212 48.581932042190715 C 0.0 **** -0.24
32422 H 41.939563040240444 52.516543518719004 48.40776902415206 H 0.0 **** 0.06
32423 H 40.47037054159428 51.856357084975 49.165416824617424 H 0.0 **** 0.06
32424 H 41.96499082844305 50.88969462692694 49.12871697459514 H 0.0 **** 0.06
32425 H 41.05772326626709 51.183886783998986 47.62546831902746 H 0.0 **** 0.06
32426 C 62.47388372932153 13.25488526161746 86.57035551899025 C 0.0 **** -0.24
32427 H 62.20145344642839 12.381081497005596 85.97679692795293 H 0.0 **** 0.06
32428 H 61.61851607026193 13.927417517024026 86.63824900379649 H 0.0 **** 0.06
32429 H 63.307593451509945 13.771678129843963 86.09483663904285 H 0.0 **** 0.06
32430 H 62.76708814479957 12.936397349222261 87.57089217869668 H 0.0 **** 0.06
32431 C 112.26656931376687 50.33666152267833 31.617451445680842 C 0.0 **** -0.24
32432 H 111.86519189777584 50.01525779741877 32.578781153480065 H 0.0 **** 0.06
32433 H 111.8718805024699 49.697296497172914 30.82802883927741 H 0.0 **** 0.06
32434 H 113.3539385386951 50.263180838499665 31.635443737696136 H 0.0 **** 0.06
32435 H 111.97504807902578 51.370645040695734 31.429761566018726 H 0.0 **** 0.06
32436 C 10.177369698377731 86.2946238064911 82.21134253797251 C 0.0 **** -0.24
32437 H 11.041853512320273 86.3612696995101 81.55044689414225 H 0.0 **** 0.06
32438 H 10.221006754945108 85.36133302270116 82.77374377461013 H 0.0 **** 0.06
32439 H 9.263410681395769 86.31988158265904 81.61762632130643 H 0.0 **** 0.06
32440 H 10.184538029461748 87.13646156032652 82.90371944255725 H 0.0 **** 0.06
32441 C 48.743395833238765 57.447189963442916 22.162975777000355 C 0.0 **** -0.24
32442 H 48.62000601699364 58.360730097453704 22.743654927886325 H 0.0 **** 0.06
32443 H 48.11850783957776 56.661020566786895 22.586964754088513 H 0.0 **** 0.06
32444 H 49.78851045397985 57.13714381989411 22.19371427695023 H 0.0 **** 0.06
32445 H 48.44854022014911 57.6306906085126 21.129891737458195 H 0.0 **** 0.06
32446 C 102.99559904005133 113.19995875263788 32.56228900409199 C 0.0 **** -0.24
32447 H 103.88703436180529 112.57625833523778 32.49532017441464 H 0.0 **** 0.06
32448 H 102.34869650074091 112.8234766909745 33.35572042714126 H 0.0 **** 0.06
32449 H 102.46126960543882 113.1722109320479 31.61261059390339 H 0.0 **** 0.06
32450 H 103.28655371525491 114.22619801420672 32.78639905974571 H 0.0 **** 0.06
32451 C 7.234968170775687 39.996268693742735 39.10707233824053 C 0.0 **** -0.24
32452 H 7.52507785259516 39.485417765779886 38.18824931901922 H 0.0 **** 0.06
32453 H 7.969362705898391 39.78612249313363 39.885181106744966 H 0.0 **** 0.06
32454 H 6.254974171104152 39.640625713855826 39.426177072314715 H 0.0 **** 0.06
32455 H 7.191854604268599 41.07019027445534 38.9278697255605 H 0.0 **** 0.06
32456 C 20.502268430273713 1.820123545347343 91.72039676178392 C 0.0 **** -0.24
32457 H 19.678821118434985 1.1592878511717117 91.99280036994097 H 0.0 **** 0.06
32458 H 20.102600960124633 2.756206397487034 91.33102195106304 H 0.0 **** 0.06
32459 H 21.11494753991858 1.3403592991526807 90.95728895209274 H 0.0 **** 0.06
32460 H 21.111540396053332 2.0233577034101984 92.60046860685284 H 0.0 **** 0.06
32461 C 95.97946708644238 108.54051062825721 85.2425818479162 C 0.0 **** -0.24
32462 H 96.08685006852599 108.54279505552216 84.15864571228337 H 0.0 **** 0.06
32463 H 96.25787510240696 107.561309981253 85.63323525480723 H 0.0 **** 0.06
32464 H 94.94411447665402 108.75581754987884 85.5056670712101 H 0.0 **** 0.06
32465 H 96.62987654556088 109.30187784888436 85.67388509719092 H 0.0 **** 0.06
32466 C 86.12601532896593 70.33608536252808 40.84958516585935 C 0.0 **** -0.24
32467 H 85.97975877818405 71.33298490309465 40.43466439090729 H 0.0 **** 0.06
32468 H 85.34082142227936 69.6723067212044 40.48491335937854 H 0.0 **** 0.06
32469 H 86.08334850622151 70.3859035090544 41.93701911100271 H 0.0 **** 0.06
32470 H 87.09840230640555 69.9533033263861 40.54001702810775 H 0.0 **** 0.06
32471 C 63.131907534557406 89.31914089999066 55.369373759261066 C 0.0 **** -0.24
32472 H 63.26815911448383 89.7330353691622 56.368837055796405 H 0.0 **** 0.06
32473 H 62.97215699331503 88.24363149581058 55.44108296091062 H 0.0 **** 0.06
32474 H 64.02197821141411 89.5158402913602 54.77176979199871 H 0.0 **** 0.06
32475 H 62.26734417316478 89.78626915907813 54.89805716454026 H 0.0 **** 0.06
32476 C 114.05901344878082 78.0832653744867 88.88962007037827 C 0.0 **** -0.24
32477 H 114.14869713984528 79.16872038464982 88.83744466844888 H 0.0 **** 0.06
32478 H 113.00445765019853 77.8045098159792 88.85895210251249 H 0.0 **** 0.06
32479 H 114.50223512601272 77.72682769608093 89.81886364811487 H 0.0 **** 0.06
32480 H 114.5792390308339 77.63470211620364 88.04292806684015 H 0.0 **** 0.06
32481 C 36.3185747088624 82.15000075004815 71.78578809679738 C 0.0 **** -0.24
32482 H 36.147062408530644 81.31702228442168 71.10431297086004 H 0.0 **** 0.06
32483 H 37.318601210975146 82.06942335568655 72.21333027668882 H 0.0 **** 0.06
32484 H 35.57789103031831 82.12315948374075 72.58484953644671 H 0.0 **** 0.06
32485 H 36.23058320994153 83.08967127720487 71.23999162222748 H 0.0 **** 0.06
32486 C 109.7398826230966 39.14207127700345 11.390380432387843 C 0.0 **** -0.24
32487 H 108.8184729589749 39.17436597504999 10.809635908345342 H 0.0 **** 0.06
32488 H 110.59205616117922 39.296035420629174 10.728926556842794 H 0.0 **** 0.06
32489 H 109.82754155052679 38.17174648516881 11.87921647880458 H 0.0 **** 0.06
32490 H 109.71942294748764 39.92837368939669 12.14594510088773 H 0.0 **** 0.06
32491 C 2.904272953877893 0.9830656148005801 67.28596143618495 C 0.0 **** -0.24
32492 H 2.36174733382461 1.710599600696355 66.68282200252582 H 0.0 **** 0.06
32493 H 3.810959556938599 1.4428490995015295 67.68179427467862 H 0.0 **** 0.06
32494 H 3.172023262012914 0.12571914829672437 66.66799638552658 H 0.0 **** 0.06
32495 H 2.273955898676064 0.6526611039380157 68.11175332983055 H 0.0 **** 0.06
32496 C 77.21804295706593 105.7080119941364 22.246437046176037 C 0.0 **** -0.24
32497 H 76.69005946851269 106.54915401997397 22.69685968687516 H 0.0 **** 0.06
32498 H 77.73606598796763 106.04439077350071 21.347597517960516 H 0.0 **** 0.06
32499 H 76.50251212738567 104.92918944990251 21.983541599025628 H 0.0 **** 0.06
32500 H 77.94229308498095 105.31198817186174 22.957194923064325 H 0.0 **** 0.06
32501 C 13.253101477426554 40.326156979372485 28.259542927022494 C 0.0 **** -0.24
32502 H 12.865952121766043 39.892007141136304 29.180704254023794 H 0.0 **** 0.06
32503 H 14.260393961606212 39.950450671191405 28.075660698787487 H 0.0 **** 0.06
32504 H 13.28163688853894 41.412014572764406 28.352972114546674 H 0.0 **** 0.06
32505 H 12.60506259979664 40.0506998780543 27.427696819819005 H 0.0 **** 0.06
32506 C 55.029165324580646 48.46246951402006 16.593450446322294 C 0.0 **** -0.24
32507 H 55.351667586437635 48.72348613529593 17.60159160809107 H 0.0 **** 0.06
32508 H 54.12201735381764 49.0160874850221 16.34815724969704 H 0.0 **** 0.06
32509 H 54.82735107615034 47.39313742672371 16.54236437723162 H 0.0 **** 0.06
32510 H 55.815721367211545 48.71880258293115 15.88321037677261 H 0.0 **** 0.06
32511 C 88.31954985732244 45.1028952434728 18.90012449353227 C 0.0 **** -0.24
32512 H 89.30351847542056 45.32391344857234 19.314150697652348 H 0.0 **** 0.06
32513 H 88.36352361894257 45.156385662391045 17.812265561425328 H 0.0 **** 0.06
32514 H 87.59745016685537 45.83041260923687 19.2716127440239 H 0.0 **** 0.06
32515 H 88.01494279454238 44.101012527023585 19.203141887125746 H 0.0 **** 0.06
32516 C 86.44259294950558 41.608003056787254 65.71625909162967 C 0.0 **** -0.24
32517 H 86.38947389748483 41.87763085015132 64.66117510414202 H 0.0 **** 0.06
32518 H 86.44423327679868 42.51375712317537 66.32220448067454 H 0.0 **** 0.06
32519 H 87.35610299308303 41.04323757683267 65.90161092350124 H 0.0 **** 0.06
32520 H 85.57840623200667 40.99675704845856 65.97781911055526 H 0.0 **** 0.06
32521 C 27.62142509944522 73.03535355527254 80.50310687003116 C 0.0 **** -0.24
32522 H 27.705467202394374 72.86660012029165 79.42997774782702 H 0.0 **** 0.06
32523 H 28.498046054268684 73.57848755108643 80.85611413301365 H 0.0 **** 0.06
32524 H 27.557688457025904 72.07609504923343 81.0170278161695 H 0.0 **** 0.06
32525 H 26.723492142804446 73.61844317003678 80.71019606185325 H 0.0 **** 0.06
32526 C 5.782452535707407 64.97723146567097 75.99403044796719 C 0.0 **** -0.24
32527 H 5.578085606782196 66.03221671298081 76.17460234179663 H 0.0 **** 0.06
32528 H 6.54918639637539 64.88153809785882 75.22514623144593 H 0.0 **** 0.06
32529 H 4.869488750947966 64.4830464386742 75.66064734040847 H 0.0 **** 0.06
32530 H 6.130878721163086 64.51159189761341 76.91579448378431 H 0.0 **** 0.06
32531 C 20.725521610390377 0.8033783725626105 8.857771689801268 C 0.0 **** -0.24
32532 H 20.327803540768624 1.7103904159283214 9.312818330103383 H 0.0 **** 0.06
32533 H 21.553160117241948 1.0621128580636636 8.196258261311883 H 0.0 **** 0.06
32534 H 19.940418031627217 0.3112446284617807 8.28291277791483 H 0.0 **** 0.06
32535 H 21.080275515195005 0.1305067406158642 9.638581147316444 H 0.0 **** 0.06
32536 C 52.13704094656802 28.036513667174482 104.65523503704179 C 0.0 **** -0.24
32537 H 52.04122234908226 27.161123536623485 104.01246453961642 H 0.0 **** 0.06
32538 H 52.17159173776483 27.71923198305177 105.69827704935295 H 0.0 **** 0.06
32539 H 51.28032618257427 28.69321653509577 104.50382789043061 H 0.0 **** 0.06
32540 H 53.05424638320312 28.570476329715625 104.4075416663143 H 0.0 **** 0.06
32541 C 91.91370118257908 70.85966692553589 102.66911550586474 C 0.0 **** -0.24
32542 H 91.3342756060552 71.43049009905448 101.94403769957603 H 0.0 **** 0.06
32543 H 91.24332566596698 70.43280245018315 103.4148335015006 H 0.0 **** 0.06
32544 H 92.63211947821799 71.51602560081997 103.15856756054447 H 0.0 **** 0.06
32545 H 92.44575840293447 70.05668976212624 102.15668415392457 H 0.0 **** 0.06
32546 C 100.78752707254955 44.53270928138306 76.80240762206282 C 0.0 **** -0.24
32547 H 101.56373740902029 44.87051370973063 77.48927927287968 H 0.0 **** 0.06
32548 H 99.80746806287323 44.73424455129964 77.23470593650524 H 0.0 **** 0.06
32549 H 100.89595387380598 43.46246946541805 76.62852464452445 H 0.0 **** 0.06
32550 H 100.88513835167316 45.0659735458849 75.85633453976965 H 0.0 **** 0.06
32551 C 78.33137174344043 86.78166984069787 1.3723243487919206 C 0.0 **** -0.24
32552 H 78.17334580704622 87.17251144375271 2.3779627849752814 H 0.0 **** 0.06
32553 H 79.29680889131154 87.12322972895655 0.997659191922736 H 0.0 **** 0.06
32554 H 77.53885658375134 87.13947021913714 0.7149685982033418 H 0.0 **** 0.06
32555 H 78.31618439521966 85.69227790724705 1.3998289901401506 H 0.0 **** 0.06
32556 C 83.93417864416645 99.4589090633215 23.822090699120395 C 0.0 **** -0.24
32557 H 83.85317751921511 99.31051211241518 22.745045130235837 H 0.0 **** 0.06
32558 H 83.95629022566501 98.48995580455087 24.321372840674258 H 0.0 **** 0.06
32559 H 83.07547340338002 100.03022115710385 24.174276373255054 H 0.0 **** 0.06
32560 H 84.85039239341381 100.00497248457631 24.04590993241652 H 0.0 **** 0.06
32561 C 73.3657311299487 29.663111622087783 72.48401391556132 C 0.0 **** -0.24
32562 H 73.93399649067243 29.62276907233732 71.55526590502754 H 0.0 **** 0.06
32563 H 72.55208035373968 30.38110790559668 72.38094248190876 H 0.0 **** 0.06
32564 H 74.02131357213972 29.970156221925293 73.29842732155677 H 0.0 **** 0.06
32565 H 72.95407485486135 28.676763007418998 72.70103595272133 H 0.0 **** 0.06
32566 C 23.777739946254883 26.24796092163757 114.35228299999662 C 0.0 **** -0.24
32567 H 24.26362509352299 25.279504640903866 114.46891057704565 H 0.0 **** 0.06
32568 H 22.714990419188155 26.098980861159305 114.15880068668793 H 0.0 **** 0.06
32569 H 24.22805357626828 26.782302099039157 113.51619744104627 H 0.0 **** 0.06
32570 H 23.903267071270193 26.829076130620678 115.26540290996505 H 0.0 **** 0.06
32571 C 44.11008341788087 89.73858860064897 59.72101338740759 C 0.0 **** -0.24
32572 H 43.24066113685754 89.0812312033703 59.71610308869844 H 0.0 **** 0.06
32573 H 43.80738475300967 90.74436498846671 59.42784039610438 H 0.0 **** 0.06
32574 H 44.853699272281546 89.36226864430759 59.017284877094234 H 0.0 **** 0.06
32575 H 44.5401793740551 89.76493165937944 60.72261935922811 H 0.0 **** 0.06
32576 C 90.94878809764305 61.6811878195258 26.03616850604118 C 0.0 **** -0.24
32577 H 90.98681969189309 61.762972274150854 27.122148630363363 H 0.0 **** 0.06
32578 H 91.96098585595473 61.724593437128135 25.632972936233166 H 0.0 **** 0.06
32579 H 90.36028494942437 62.504332678054425 25.630262625047237 H 0.0 **** 0.06
32580 H 90.48748166442115 60.73413381337491 25.7588618833865 H 0.0 **** 0.06
32581 C 54.296553208633895 31.88549510862714 107.1073724491734 C 0.0 **** -0.24
32582 H 53.41839784334326 31.861734742887762 106.46191092544814 H 0.0 **** 0.06
32583 H 54.54403822722995 30.87095515232693 107.42147254718017 H 0.0 **** 0.06
32584 H 54.085540080998015 32.49616804185466 107.9854100400645 H 0.0 **** 0.06
32585 H 55.137474815282815 32.312498908798915 106.56052091897047 H 0.0 **** 0.06
32586 C 113.45717352795631 14.223939733125984 27.861971106432698 C 0.0 **** -0.24
32587 H 113.71285095052313 15.26108848094631 28.08062503302901 H 0.0 **** 0.06
32588 H 113.62858808321765 13.613398858420194 28.748257081348918 H 0.0 **** 0.06
32589 H 114.08064397238877 13.862008506605843 27.044603172204944 H 0.0 **** 0.06
32590 H 112.4075557035436 14.16136954848735 27.573580053539004 H 0.0 **** 0.06
32591 C 84.13955475975843 80.76759852204981 50.97201859372407 C 0.0 **** -0.24
32592 H 83.77023875215832 81.68033311027074 51.44035636164742 H 0.0 **** 0.06
32593 H 85.15048947636359 80.93563638269663 50.59817189944681 H 0.0 **** 0.06
32594 H 83.48597151027224 80.494096136504 50.143591556587936 H 0.0 **** 0.06
32595 H 84.15275914238538 79.96214999252703 51.70633547232319 H 0.0 **** 0.06
32596 C 50.80917522067705 37.467400246874035 87.46451316527478 C 0.0 **** -0.24
32597 H 50.5489770014824 36.41477370925719 87.34682157720329 H 0.0 **** 0.06
32598 H 51.05692787478256 37.89018236608899 86.49024167403346 H 0.0 **** 0.06
32599 H 51.667793520388045 37.55683928120925 88.12896268137362 H 0.0 **** 0.06
32600 H 49.96143791081221 38.004202483504855 87.89013714234065 H 0.0 **** 0.06
32601 C 15.474267866737591 59.11313200693493 8.517512499767633 C 0.0 **** -0.24
32602 H 15.568319341804056 58.41298590758885 9.348136828949151 H 0.0 **** 0.06
32603 H 14.465942032983008 59.527595513172145 8.504473586593463 H 0.0 **** 0.06
32604 H 15.664703971186583 58.59094303905516 7.579557398330053 H 0.0 **** 0.06
32605 H 16.197811705101145 59.91962175550552 8.637818704229375 H 0.0 **** 0.06
32606 C 69.5105888427818 17.717495050146326 30.697312156685683 C 0.0 **** -0.24
32607 H 70.20551486299706 18.528154104189028 30.916007559223857 H 0.0 **** 0.06
32608 H 68.68990981096326 17.73927994766906 31.414625431964012 H 0.0 **** 0.06
32609 H 70.03299203622021 16.762668410753562 30.770319440532887 H 0.0 **** 0.06
32610 H 69.11605995021111 17.8395311893715 29.688912900926482 H 0.0 **** 0.06
32611 C 14.14876144204824 81.34446565530192 79.83188284427598 C 0.0 **** -0.24
32612 H 13.366581668005608 80.74748271103874 80.29999082875185 H 0.0 **** 0.06
32613 H 13.711940702964569 82.25330309526333 79.41576120047083 H 0.0 **** 0.06
32614 H 14.617456380551161 80.76916589408813 79.03385015714662 H 0.0 **** 0.06
32615 H 14.897926850575075 81.60972452958617 80.57728799282737 H 0.0 **** 0.06
32616 C 57.34771385736312 92.20278402487199 56.72689030677793 C 0.0 **** -0.24
32617 H 58.142030282974446 92.92092525114373 56.93274854684705 H 0.0 **** 0.06
32618 H 56.39080767200036 92.61957654181904 57.04379504776398 H 0.0 **** 0.06
32619 H 57.54157422028004 91.28002087098932 57.273338165422956 H 0.0 **** 0.06
32620 H 57.31611342529311 91.99356338521594 55.65811482007041 H 0.0 **** 0.06
32621 C 108.80546285685185 35.0415729305595 84.38030075533061 C 0.0 **** -0.24
32622 H 109.12531682637726 34.172901941913516 84.9555442684937 H 0.0 **** 0.06
32623 H 107.72148318745937 35.14006654822869 84.4419941348356 H 0.0 **** 0.06
32624 H 109.10093614391542 34.9157224885405 83.337911067168 H 0.0 **** 0.06
32625 H 109.2761238283189 35.93739428419484 84.78436667847132 H 0.0 **** 0.06
32626 C 105.46298386255694 79.03850380780094 34.735025512680465 C 0.0 **** -0.24
32627 H 105.32253385896121 77.96627236313515 34.87834193828871 H 0.0 **** 0.06
32628 H 104.54589834462112 79.47477564298691 34.34000277360414 H 0.0 **** 0.06
32629 H 106.27894655712129 79.20614030817717 34.03220417284501 H 0.0 **** 0.06
32630 H 105.70556759079741 79.5037776474226 35.691190477466165 H 0.0 **** 0.06
32631 C 73.72839868896827 40.539426701165695 93.2927696382734 C 0.0 **** -0.24
32632 H 74.18080718136184 39.72570090347705 93.85942194502897 H 0.0 **** 0.06
32633 H 74.47562946607124 40.983900782019646 92.6353444155807 H 0.0 **** 0.06
32634 H 73.35314621142547 41.29765448523156 93.98139455563714 H 0.0 **** 0.06
32635 H 72.90295279896577 40.15108510644791 92.69613251548367 H 0.0 **** 0.06
32636 C 90.55914600830457 5.809454223853436 47.76438048257302 C 0.0 **** -0.24
32637 H 90.63509345992756 6.863416420434746 48.03404454932041 H 0.0 **** 0.06
32638 H 89.51264670575847 5.554107495002782 47.59278117554294 H 0.0 **** 0.06
32639 H 90.95444402252554 5.1974774405455975 48.57515410296085 H 0.0 **** 0.06
32640 H 91.13276784214065 5.62539744329051 46.85636119928907 H 0.0 **** 0.06
32641 C 50.28826097877625 22.605021318945756 107.69053778084213 C 0.0 **** -0.24
32642 H 51.343547902772876 22.879145257956203 107.71062762433604 H 0.0 **** 0.06
32643 H 50.19419580318425 21.519098991457188 107.6994489943346 H 0.0 **** 0.06
32644 H 49.827933028393055 23.001899409991733 106.78527153727998 H 0.0 **** 0.06
32645 H 49.78818038288102 23.02154094898191 108.56513527865098 H 0.0 **** 0.06
32646 C 11.89601806462738 48.84200012296208 62.07624002912441 C 0.0 **** -0.24
32647 H 11.351987543907327 48.96643711246017 61.13927617381726 H 0.0 **** 0.06
32648 H 12.91941273901714 48.53325660487263 61.86314206138061 H 0.0 **** 0.06
32649 H 11.404979490783699 48.08172722654568 62.6826987160531 H 0.0 **** 0.06
32650 H 11.90628994898147 49.78798063353538 62.617591415935415 H 0.0 **** 0.06
32651 C 93.66418417649709 66.29522313068213 90.13860208417577 C 0.0 **** -0.24
32652 H 92.73577706940077 65.91241974959397 90.5629354500791 H 0.0 **** 0.06
32653 H 94.34787374420551 66.56423395974429 90.94500944374155 H 0.0 **** 0.06
32654 H 93.45139026889936 67.17551394611365 89.53231438052802 H 0.0 **** 0.06
32655 H 94.12120436551805 65.52593608319114 89.5151399565899 H 0.0 **** 0.06
32656 C 9.60675605644304 56.477452852704175 12.476827378200738 C 0.0 **** -0.24
32657 H 10.401627503884171 56.56467530457408 13.21717969914991 H 0.0 **** 0.06
32658 H 9.865598437349998 55.702092710504274 11.755333598751804 H 0.0 **** 0.06
32659 H 9.486489940856373 57.430229033797104 11.959570503856725 H 0.0 **** 0.06
32660 H 8.673479830095676 56.21378261783778 12.975043691874106 H 0.0 **** 0.06
32661 C 25.13585459406127 88.55862434718065 8.712338257969776 C 0.0 **** -0.24
32662 H 25.685567149491277 89.49380182360272 8.82496257169305 H 0.0 **** 0.06
32663 H 24.307911294415902 88.53625285431468 9.420490316102587 H 0.0 **** 0.06
32664 H 25.80342491918438 87.7194998216037 8.90703502924626 H 0.0 **** 0.06
32665 H 24.747712407769455 88.48556113923559 7.696436012134683 H 0.0 **** 0.06
32666 C 12.017578823152888 71.57827260947869 69.6012892155361 C 0.0 **** -0.24
32667 H 12.979984548838374 71.63672585097362 69.0928342944226 H 0.0 **** 0.06
32668 H 12.063458850483968 70.81297208218854 70.37701350587884 H 0.0 **** 0.06
32669 H 11.241012878012853 71.31929295075179 68.88089356583734 H 0.0 **** 0.06
32670 H 11.786189704588821 72.54189516616384 70.0545932854659 H 0.0 **** 0.06
32671 C 70.37493022235935 97.29812086556507 109.86957717461112 C 0.0 **** -0.24
32672 H 70.6575360478488 98.29459676367583 109.52930121735896 H 0.0 **** 0.06
32673 H 69.62150135028736 97.38228546965917 110.65314290568857 H 0.0 **** 0.06
32674 H 71.25299005665525 96.78583377802175 110.26296990128145 H 0.0 **** 0.06
32675 H 69.96796163888388 96.73058318391321 109.03238212734352 H 0.0 **** 0.06
32676 C 82.28755458908378 45.331785063101165 83.43925809443817 C 0.0 **** -0.24
32677 H 81.92546569140785 45.65712246924738 82.46316728887754 H 0.0 **** 0.06
32678 H 83.29614749393204 45.71413232670312 83.59805330920943 H 0.0 **** 0.06
32679 H 82.30229542489079 44.24262946073628 83.47610550063638 H 0.0 **** 0.06
32680 H 81.62703926847851 45.71368692490154 84.21700765687288 H 0.0 **** 0.06
32681 C 60.28262838878868 0.8001732421656982 82.49790451235864 C 0.0 **** -0.24
32682 H 60.83802856995155 1.6776188974798174 82.16909661602068 H 0.0 **** 0.06
32683 H 60.86521696520333 -0.09822799596898335 82.28882353324303 H 0.0 **** 0.06
32684 H 59.33375568733342 0.7494866763010748 81.9649313712811 H 0.0 **** 0.06
32685 H 60.09451624237457 0.8701517409191126 83.56987320158342 H 0.0 **** 0.06
32686 C 67.03643954533189 17.357447771145164 4.428471135286912 C 0.0 **** -0.24
32687 H 68.00919014944861 17.539806089102264 3.9715338505072566 H 0.0 **** 0.06
32688 H 66.35771170877337 16.942716737873603 3.6823520210692493 H 0.0 **** 0.06
32689 H 66.63168946678749 18.296438530967258 4.806969129861784 H 0.0 **** 0.06
32690 H 67.14788884714827 16.65188386860919 5.2511943818975055 H 0.0 **** 0.06
32691 C 111.85346163925578 17.333963018954687 14.154028717102364 C 0.0 **** -0.24
32692 H 111.17865435570997 16.60434250136994 14.602607633166258 H 0.0 **** 0.06
32693 H 111.29561805369504 17.965727842135323 13.461492210342186 H 0.0 **** 0.06
32694 H 112.64472555219743 16.812912019627742 13.615446118054393 H 0.0 **** 0.06
32695 H 112.29182687611343 17.951675254322 14.93723457958501 H 0.0 **** 0.06
32696 C 27.654951645231137 72.07908839402592 106.69248734187249 C 0.0 **** -0.24
32697 H 27.09510989620216 72.20941954219651 107.61945123771062 H 0.0 **** 0.06
32698 H 27.576808719989174 71.04305193083479 106.36411552637736 H 0.0 **** 0.06
32699 H 28.702369833065546 72.33013585382258 106.86240887997656 H 0.0 **** 0.06
32700 H 27.24443209059737 72.73587345951444 105.9257892161229 H 0.0 **** 0.06
32701 C 101.98717158002142 50.86625358753989 90.02285494320554 C 0.0 **** -0.24
32702 H 102.17470095076831 50.25455835124717 89.13982057496875 H 0.0 **** 0.06
32703 H 100.91344911334954 51.00587148019983 90.14731320924432 H 0.0 **** 0.06
32704 H 102.46870287017583 51.836696018562634 89.90164816662084 H 0.0 **** 0.06
32705 H 102.3930927697547 50.366164700400134 90.903303221648 H 0.0 **** 0.06
32706 C 49.49847527918058 11.32385109488635 96.34991303861443 C 0.0 **** -0.24
32707 H 50.505063458848326 11.706108237743734 96.52396695993025 H 0.0 **** 0.06
32708 H 49.02513780953208 11.099776690863479 97.3053983680444 H 0.0 **** 0.06
32709 H 49.55459702728105 10.415390715693476 95.75027727508154 H 0.0 **** 0.06
32710 H 48.911942084762245 12.073169715818523 95.81987031842266 H 0.0 **** 0.06
32711 C 49.356810716482954 39.02775127049989 69.13051245586078 C 0.0 **** -0.24
32712 H 48.72569892331606 38.604899901816225 69.91242077022082 H 0.0 **** 0.06
32713 H 49.8680503519536 39.91064033862301 69.51447977826209 H 0.0 **** 0.06
32714 H 48.73982796068023 39.30683214927353 68.27665996315778 H 0.0 **** 0.06
32715 H 50.09393394073456 38.28703934196682 68.82003512367567 H 0.0 **** 0.06
32716 C 54.722317897525045 61.4642493332168 43.23624746328096 C 0.0 **** -0.24
32717 H 54.71084148271407 61.03916239194791 42.2324589556319 H 0.0 **** 0.06
32718 H 53.85764279221135 62.11550230638005 43.364690070755216 H 0.0 **** 0.06
32719 H 55.635965806687125 62.04122305804907 43.37507006858152 H 0.0 **** 0.06
32720 H 54.684998087758004 60.659867982663854 43.970919392502026 H 0.0 **** 0.06
32721 C 105.54678277948085 108.86579846551095 7.492572470113849 C 0.0 **** -0.24
32722 H 104.78017714143976 109.4266249847249 8.027993259612511 H 0.0 **** 0.06
32723 H 105.79677272982099 109.3861261077779 6.568034677973634 H 0.0 **** 0.06
32724 H 105.17067025931902 107.86987570908045 7.258685325884583 H 0.0 **** 0.06
32725 H 106.43680225154316 108.78182910943147 8.115311088818661 H 0.0 **** 0.06
32726 C 109.46479098364159 57.66635866414948 49.969760621902886 C 0.0 **** -0.24
32727 H 109.67384087210522 58.46678309950459 49.25939108064791 H 0.0 **** 0.06
32728 H 110.34412223550476 57.02805105912794 50.066223175575495 H 0.0 **** 0.06
32729 H 108.62298172788965 57.073866136602184 49.61152502569436 H 0.0 **** 0.06
32730 H 109.22011352303053 58.096578776769014 50.94035811683579 H 0.0 **** 0.06
32731 C 22.12754646778194 64.29370666627142 9.504721698617232 C 0.0 **** -0.24
32732 H 22.333870354492348 65.09984255349161 10.2091657227204 H 0.0 **** 0.06
32733 H 21.329785825467184 64.59870976330984 8.828057831992453 H 0.0 **** 0.06
32734 H 21.819566150308077 63.40333866265405 10.053269719513764 H 0.0 **** 0.06
32735 H 23.028328749864272 64.07454635734285 8.931482655025377 H 0.0 **** 0.06
32736 C 55.219306413342565 99.80816674449457 81.1515424453444 C 0.0 **** -0.24
32737 H 54.716473439252525 100.39460093285058 80.38171910068661 H 0.0 **** 0.06
32738 H 54.47600917963706 99.29442182661847 81.76104825870348 H 0.0 **** 0.06
32739 H 55.81205858241887 100.47119567023279 81.78215128256872 H 0.0 **** 0.06
32740 H 55.873649953244495 99.0755556225283 80.67940324608827 H 0.0 **** 0.06
32741 C 79.1638834349697 103.05012319464319 80.94854032272406 C 0.0 **** -0.24
32742 H 78.44045812063501 103.48037601258912 81.64185219548068 H 0.0 **** 0.06
32743 H 79.81058502562252 103.8388798209402 80.5634922315052 H 0.0 **** 0.06
32744 H 78.63646010373543 102.57551462787478 80.1207992211435 H 0.0 **** 0.06
32745 H 79.7681210589567 102.30682177482652 81.46890257564681 H 0.0 **** 0.06
32746 C 99.76204207203847 34.90026569937865 2.109517513815206 C 0.0 **** -0.24
32747 H 100.5294707224785 34.68772686729477 1.365398933941833 H 0.0 **** 0.06
32748 H 100.16616673548577 35.57452660171401 2.8647992322689646 H 0.0 **** 0.06
32749 H 99.4471268387627 33.969861597864494 2.582059120416872 H 0.0 **** 0.06
32750 H 98.9062028568465 35.36927298855814 1.623749685606029 H 0.0 **** 0.06
32751 C 91.63156394911661 90.39469667441313 111.94701700577774 C 0.0 **** -0.24
32752 H 92.15928444812741 90.6945809852256 111.0412369639763 H 0.0 **** 0.06
32753 H 91.5708223533598 89.30735295984704 111.98845428589047 H 0.0 **** 0.06
32754 H 90.62680632666635 90.81504952586113 111.9378812467751 H 0.0 **** 0.06
32755 H 92.1715972397422 90.7625715373475 112.81992372690006 H 0.0 **** 0.06
32756 C 6.80191896401074 39.97772570991185 57.115845660756605 C 0.0 **** -0.24
32757 H 6.638918583403845 39.039928293940534 57.64821858103818 H 0.0 **** 0.06
32758 H 6.000851526810891 40.1288617189698 56.39271095914643 H 0.0 **** 0.06
32759 H 7.75926657503819 39.93827786587303 56.595689515612435 H 0.0 **** 0.06
32760 H 6.808921552610819 40.80283462411103 57.828743455189084 H 0.0 **** 0.06
32761 C 18.901523683469918 53.19111648059862 91.69731263535965 C 0.0 **** -0.24
32762 H 18.97851750318179 53.37656943213415 90.62611326009409 H 0.0 **** 0.06
32763 H 18.25456081543045 53.94296841315918 92.15076137870864 H 0.0 **** 0.06
32764 H 19.893629893752916 53.24612816923337 92.1473904614831 H 0.0 **** 0.06
32765 H 18.481264558213752 52.19992871024277 91.86543161780361 H 0.0 **** 0.06
32766 C 40.68530760039124 86.71924446849354 105.2309404379414 C 0.0 **** -0.24
32767 H 39.97638590263611 86.39250142386035 105.99051589111482 H 0.0 **** 0.06
32768 H 41.49427701096906 85.99193506671631 105.15232378246233 H 0.0 **** 0.06
32769 H 41.095857070694876 87.68971807492414 105.50966444890764 H 0.0 **** 0.06
32770 H 40.1758506520311 86.80217567918777 104.27072795288237 H 0.0 **** 0.06
32771 C 81.62510809542215 82.06601666639216 9.483323620925034 C 0.0 **** -0.24
32772 H 81.22148758496263 81.08691922583665 9.224447826091819 H 0.0 **** 0.06
32773 H 82.52780937482709 81.93987742369103 10.083085570177673 H 0.0 **** 0.06
32774 H 80.88348958664625 82.62385044362196 10.055400057910475 H 0.0 **** 0.06
32775 H 81.86754594105656 82.61143611809206 8.5717950024561 H 0.0 **** 0.06
32776 C 22.2992689475732 14.76644402115705 107.00131261233619 C 0.0 **** -0.24
32777 H 23.19977768630065 14.385545169959112 106.51976507630846 H 0.0 **** 0.06
32778 H 22.494766737595295 15.761052152911144 107.40273168589349 H 0.0 **** 0.06
32779 H 22.011391926654266 14.097515175559447 107.81300901417507 H 0.0 **** 0.06
32780 H 21.49166295981038 14.820105283039112 106.27126055827051 H 0.0 **** 0.06
32781 C 7.612567827110254 109.5050186737059 80.73094844599646 C 0.0 **** -0.24
32782 H 8.216579408587236 108.71044913202198 81.16700820636513 H 0.0 **** 0.06
32783 H 6.603798272392183 109.13471763513763 80.54565638501276 H 0.0 **** 0.06
32784 H 8.059622715246121 109.82658020245483 79.78992075480929 H 0.0 **** 0.06
32785 H 7.569322954957968 110.34900516537778 81.41929984090413 H 0.0 **** 0.06
32786 C 106.10486464288516 58.48751746078071 95.99594039410772 C 0.0 **** -0.24
32787 H 106.64456146164684 58.141053196715774 96.87701859391251 H 0.0 **** 0.06
32788 H 106.78501779989315 58.52431244278256 95.14506098479163 H 0.0 **** 0.06
32789 H 105.70352342699454 59.48292359238769 96.18494780017579 H 0.0 **** 0.06
32790 H 105.28684794225026 57.80108510349589 95.778801668695 H 0.0 **** 0.06
32791 C 79.77218316484823 44.53532767500138 62.754082714059564 C 0.0 **** -0.24
32792 H 80.51087061931923 44.621924789147215 61.95799246732679 H 0.0 **** 0.06
32793 H 78.99323410502154 45.284420099303475 62.6091899491355 H 0.0 **** 0.06
32794 H 80.2564259570878 44.69642957564588 63.71764179726085 H 0.0 **** 0.06
32795 H 79.32814639262119 43.540346005077254 62.73065700846087 H 0.0 **** 0.06
32796 C 69.15027896063282 111.00314889399667 105.95976869998034 C 0.0 **** -0.24
32797 H 69.33594490973698 111.45939105304313 104.98702142691914 H 0.0 **** 0.06
32798 H 69.18588514931176 109.91798510011012 105.8645285068462 H 0.0 **** 0.06
32799 H 68.16702447302384 111.30457117244228 106.32090328103786 H 0.0 **** 0.06
32800 H 69.9128612861542 111.33111653780108 106.66597289866345 H 0.0 **** 0.06
32801 C 18.267029381921674 85.4896963394574 30.86786690484081 C 0.0 **** -0.24
32802 H 19.28062631739604 85.27297356503402 30.53109630494839 H 0.0 **** 0.06
32803 H 17.64753617122858 84.5996655735764 30.752956406322937 H 0.0 **** 0.06
32804 H 17.85117762055134 86.30090994068266 30.270734808951374 H 0.0 **** 0.06
32805 H 18.28720293277948 85.78523670013979 31.91740201925677 H 0.0 **** 0.06
32806 C 55.392543751899694 44.59857848315431 40.92104763213564 C 0.0 **** -0.24
32807 H 54.97856591108109 45.47402761764788 41.42169635626922 H 0.0 **** 0.06
32808 H 55.55039107646286 43.804400084246694 41.649794348836934 H 0.0 **** 0.06
32809 H 56.34461517553888 44.86105951637691 40.45804572079615 H 0.0 **** 0.06
32810 H 54.69829695825891 44.257088319304216 40.15364631095164 H 0.0 **** 0.06
32811 C 108.16954548384302 54.498588021459355 7.099141811770405 C 0.0 **** -0.24
32812 H 109.21709966265728 54.310239276315656 7.331068249976697 H 0.0 **** 0.06
32813 H 107.53821503671685 53.88010762941438 7.738291969335432 H 0.0 **** 0.06
32814 H 107.97850313144997 54.25420229346956 6.054273689379203 H 0.0 **** 0.06
32815 H 107.94319167875844 55.550589667624806 7.2728526566321605 H 0.0 **** 0.06
32816 C 66.39946592017844 99.75302368809719 82.149214846642 C 0.0 **** -0.24
32817 H 67.2230925162051 100.15869016466513 81.56190582135076 H 0.0 **** 0.06
32818 H 65.49338932647265 99.7409380787594 81.54363322951434 H 0.0 **** 0.06
32819 H 66.24004982617731 100.37508812459788 83.03008732513541 H 0.0 **** 0.06
32820 H 66.64178065653067 98.73649604565344 82.4613753285347 H 0.0 **** 0.06
32821 C 41.74036219940456 58.28870495222779 13.921380151620099 C 0.0 **** -0.24
32822 H 42.61665639727181 58.55033079451897 13.328004737612304 H 0.0 **** 0.06
32823 H 41.21911191947896 59.19908087050223 14.21956444647617 H 0.0 **** 0.06
32824 H 42.05423079571386 57.74163779830997 14.809863660855115 H 0.0 **** 0.06
32825 H 41.071600508453116 57.66584239641321 13.327260629185133 H 0.0 **** 0.06
32826 C 82.41088940482302 14.060416500964038 0.12959919457558122 C 0.0 **** -0.24
32827 H 83.15541073113943 14.478192593216818 -0.5479206087340245 H 0.0 **** 0.06
32828 H 81.52618631883033 14.6984676775931 0.13441700624776232 H 0.0 **** 0.06
32829 H 82.8257797662956 14.007334233233138 1.1360718552043139 H 0.0 **** 0.06
32830 H 82.13633302258089 13.059868625040423 -0.2037844857931148 H 0.0 **** 0.06
32831 C 38.58708922236471 49.73121253426126 80.1424587904745 C 0.0 **** -0.24
32832 H 39.269039283737555 48.90234884397131 79.95106365770971 H 0.0 **** 0.06
32833 H 37.621130591758146 49.340073668344445 80.4629854156783 H 0.0 **** 0.06
32834 H 38.458797309935704 50.31353582758729 79.2299311240331 H 0.0 **** 0.06
32835 H 38.99906182818307 50.36811434455285 80.92471998385929 H 0.0 **** 0.06
32836 C 40.17299064715345 111.46853824860382 53.688418386155895 C 0.0 **** -0.24
32837 H 41.24433493596179 111.38935644793901 53.5013738015517 H 0.0 **** 0.06
32838 H 39.72322674342039 112.13428462981253 52.951743995769604 H 0.0 **** 0.06
32839 H 40.007763302677525 111.86893074277079 54.6884302428671 H 0.0 **** 0.06
32840 H 39.71762919713121 110.4810348665451 53.61297309661826 H 0.0 **** 0.06
32841 C 35.666460847660986 49.117178328570844 29.46801448634838 C 0.0 **** -0.24
32842 H 35.4489417454392 50.16356334225688 29.25455537767712 H 0.0 **** 0.06
32843 H 36.313168033720416 49.05173981994767 30.34329193526287 H 0.0 **** 0.06
32844 H 36.169068591213005 48.668263624850226 28.61065395877668 H 0.0 **** 0.06
32845 H 34.73500644683689 48.58580036877527 29.662881412851846 H 0.0 **** 0.06
32846 C 107.71703844592281 85.07357505551792 80.11102792814785 C 0.0 **** -0.24
32847 H 108.04752100950498 84.06181354287915 79.8727781193084 H 0.0 **** 0.06
32848 H 107.72111335123321 85.21063996332504 81.19301251780061 H 0.0 **** 0.06
32849 H 106.70812112075896 85.2251849244814 79.7280028438696 H 0.0 **** 0.06
32850 H 108.39341606445657 85.79367358598972 79.65031391763154 H 0.0 **** 0.06
32851 C 40.999393202939444 66.6082951901634 58.830923649241356 C 0.0 **** -0.24
32852 H 40.81597513025159 67.18945245108787 57.92755385959924 H 0.0 **** 0.06
32853 H 41.966654041418764 66.8839551618239 59.25092961222117 H 0.0 **** 0.06
32854 H 40.999153607807244 65.54544934786654 58.58531474977059 H 0.0 **** 0.06
32855 H 40.21504260446096 66.81206407373946 59.559317291835555 H 0.0 **** 0.06
32856 C 34.091599632914324 70.35859472579637 92.49885024867683 C 0.0 **** -0.24
32857 H 35.12977153118818 70.6801976408293 92.41375229721453 H 0.0 **** 0.06
32858 H 34.011556185762124 69.5936205013079 93.27259540941571 H 0.0 **** 0.06
32859 H 33.75925060286048 69.94773293106846 91.54546906639348 H 0.0 **** 0.06
32860 H 33.468474269707 71.21175121395737 92.76447719271545 H 0.0 **** 0.06
32861 C 62.01454798371143 75.49654047562544 64.61532896245555 C 0.0 **** -0.24
32862 H 62.623453051140466 75.34784944380166 65.50683304834325 H 0.0 **** 0.06
32863 H 61.64507170802609 74.53420972518848 64.26228403142272 H 0.0 **** 0.06
32864 H 62.61811308477733 75.963090044751 63.83727524414184 H 0.0 **** 0.06
32865 H 61.17081819199888 76.14323508374414 64.85679967510708 H 0.0 **** 0.06
32866 C 80.867625787735 87.79177735699662 78.56671955939115 C 0.0 **** -0.24
32867 H 81.32919095238907 88.37681767875497 79.36302569545632 H 0.0 **** 0.06
32868 H 81.51127562248774 87.8032478297078 77.68732530005715 H 0.0 **** 0.06
32869 H 79.89815302906248 88.22274373903286 78.31425652196745 H 0.0 **** 0.06
32870 H 80.73112315970747 86.76411189664012 78.9038155613394 H 0.0 **** 0.06
32871 C 17.77450761377339 7.993512685154144 39.44594323158036 C 0.0 **** -0.24
32872 H 18.419291818571956 8.614681340293828 38.82232801755981 H 0.0 **** 0.06
32873 H 18.08915544004447 8.07544302252694 40.48677327779927 H 0.0 **** 0.06
32874 H 17.85061183074807 6.955076239864809 39.12411588651108 H 0.0 **** 0.06
32875 H 16.743221491742798 8.330266049386552 39.349589906645264 H 0.0 **** 0.06
32876 C 77.60077390167666 5.660761124702292 109.45327277686216 C 0.0 **** -0.24
32877 H 76.7213116939717 6.304097489552348 109.42165750124926 H 0.0 **** 0.06
32878 H 77.32416205236262 4.68777350375497 109.85881428549668 H 0.0 **** 0.06
32879 H 78.36115304552592 6.116711036847301 110.08797841558672 H 0.0 **** 0.06
32880 H 77.99633073131943 5.536436334125435 108.44493248742339 H 0.0 **** 0.06
32881 C 15.682847878538126 42.94245559254784 55.32875316113507 C 0.0 **** -0.24
32882 H 16.41441294919443 42.15035612729689 55.48898412037411 H 0.0 **** 0.06
32883 H 16.089597919505962 43.67458415351021 54.630065657397864 H 0.0 **** 0.06
32884 H 15.460996505992227 43.429640968972365 56.27843856383785 H 0.0 **** 0.06
32885 H 14.768551191689 42.51529452257801 54.91697537388703 H 0.0 **** 0.06
32886 C 95.74753944490882 77.28555279323803 21.593227835895433 C 0.0 **** -0.24
32887 H 96.27798313852949 76.44805210147845 21.138536592438783 H 0.0 **** 0.06
32888 H 96.40802632450217 77.79610966595348 22.293838075150006 H 0.0 **** 0.06
32889 H 94.87098703721747 76.9143328023817 22.123577268398137 H 0.0 **** 0.06
32890 H 95.43363519517641 77.981243288558 20.81532887355391 H 0.0 **** 0.06
32891 C 61.903967110434 34.68218049611451 93.77827392855858 C 0.0 **** -0.24
32892 H 61.26980199220261 34.12517553851154 93.08944160057516 H 0.0 **** 0.06
32893 H 62.803159982119986 34.10392022620081 93.99253369574654 H 0.0 **** 0.06
32894 H 61.360154031177835 34.86630122708303 94.70523989490755 H 0.0 **** 0.06
32895 H 62.18374883375191 35.6333839152781 93.32594198978214 H 0.0 **** 0.06
32896 C 51.25928421210203 40.65121467365022 31.88069493831813 C 0.0 **** -0.24
32897 H 51.69138216235903 40.70480052023928 30.8810640431214 H 0.0 **** 0.06
32898 H 51.54466815976346 39.70841299894955 32.34922783028122 H 0.0 **** 0.06
32899 H 50.172763955163674 40.70863190090522 31.81073070258708 H 0.0 **** 0.06
32900 H 51.62996594143013 41.48166276451544 32.480542350096016 H 0.0 **** 0.06
32901 C 2.6836927570641365 66.52089939730212 10.313278319725256 C 0.0 **** -0.24
32902 H 1.8083516945879978 66.82377834373605 10.888770625646515 H 0.0 **** 0.06
32903 H 2.3647696676901546 65.97330710094371 9.427185985046322 H 0.0 **** 0.06
32904 H 3.318343280349893 65.88147313757088 10.92805537179234 H 0.0 **** 0.06
32905 H 3.2435371495484446 67.4062087593552 10.012353852939839 H 0.0 **** 0.06
32906 C 14.868904123139629 65.39027830718615 11.141618214226032 C 0.0 **** -0.24
32907 H 14.89352408913416 64.48424114560962 10.536095722376334 H 0.0 **** 0.06
32908 H 15.656681870486551 65.34399368748029 11.894719153150568 H 0.0 **** 0.06
32909 H 13.900446270167095 65.4730444884209 11.633546088262566 H 0.0 **** 0.06
32910 H 15.02785914357463 66.25921091787549 10.502593631466684 H 0.0 **** 0.06
32911 C 71.95125297946942 43.25888873040873 107.75313227082339 C 0.0 **** -0.24
32912 H 70.97013616689702 43.19524314405845 107.28309187435528 H 0.0 **** 0.06
32913 H 72.71449576179015 43.37839877097656 106.98417988533433 H 0.0 **** 0.06
32914 H 72.14417745132747 42.34717069657478 108.31794843854948 H 0.0 **** 0.06
32915 H 71.97643597241657 44.11573383684731 108.42632781473615 H 0.0 **** 0.06
32916 C 36.01529043126942 51.46407687071047 116.17696361814404 C 0.0 **** -0.24
32917 H 35.978528172650606 50.922942517631384 117.12244186421557 H 0.0 **** 0.06
32918 H 36.80504718988111 52.21421579595781 116.21694881184393 H 0.0 **** 0.06
32919 H 35.05751288673928 51.95376258197541 116.00062289165015 H 0.0 **** 0.06
32920 H 36.219670778895164 50.76404642523437 115.36609674571491 H 0.0 **** 0.06
32921 C 56.242073673885095 7.786222406616332 36.26897664523845 C 0.0 **** -0.24
32922 H 55.922257349456025 6.745422958522909 36.218946757703684 H 0.0 **** 0.06
32923 H 55.72988982178045 8.283882891862902 37.093302909629124 H 0.0 **** 0.06
32924 H 55.99677599729936 8.285838184335319 35.332162336276554 H 0.0 **** 0.06
32925 H 57.31930731704946 7.827510431572989 36.431509621938346 H 0.0 **** 0.06
32926 C 3.5101869855377004 43.68617408700834 43.58818056631719 C 0.0 **** -0.24
32927 H 2.89835884229268 44.14385687135302 42.81074197451255 H 0.0 **** 0.06
32928 H 3.180595881754357 42.660019658688526 43.752216488283466 H 0.0 **** 0.06
32929 H 3.406020339297129 44.25374294746487 44.51321510453789 H 0.0 **** 0.06
32930 H 4.554046254319246 43.687164189278604 43.27644231435937 H 0.0 **** 0.06
32931 C 34.83350864842507 16.776035524500315 85.49401374405426 C 0.0 **** -0.24
32932 H 34.07501755290974 16.62972115745029 84.72439410865394 H 0.0 **** 0.06
32933 H 34.401289048820956 16.56626005372206 86.47369357918859 H 0.0 **** 0.06
32934 H 35.185428303178355 17.80736113039356 85.46569366419914 H 0.0 **** 0.06
32935 H 35.669258171102626 16.100479424348066 85.31355705553392 H 0.0 **** 0.06
32936 C 47.1316198799567 23.33200966746196 99.29670520872756 C 0.0 **** -0.24
32937 H 47.198797971227606 23.909634658535083 98.37415845870532 H 0.0 **** 0.06
32938 H 47.99918351692159 23.544166069462108 99.92167958572631 H 0.0 **** 0.06
32939 H 47.105783661276284 22.269304758993627 99.05850853807493 H 0.0 **** 0.06
32940 H 46.22170178653407 23.607371119579938 99.83104888897768 H 0.0 **** 0.06
32941 C 69.35627282131628 30.33129584762702 7.719063191304514 C 0.0 **** -0.24
32942 H 69.62355547496455 30.682990929433856 8.716506738203876 H 0.0 **** 0.06
32943 H 68.53465313740026 29.61834171899423 7.793524707826748 H 0.0 **** 0.06
32944 H 70.21881038292756 29.845759846190163 7.262678807679336 H 0.0 **** 0.06
32945 H 69.04887219548257 31.1784348033288 7.105602164172751 H 0.0 **** 0.06
32946 C 17.192022607818558 6.656951167767488 6.761110063712408 C 0.0 **** -0.24
32947 H 17.415976165317034 5.736858268054817 7.299378333120671 H 0.0 **** 0.06
32948 H 18.101709223037744 7.03606139802406 6.295667641491178 H 0.0 **** 0.06
32949 H 16.80344658784412 7.399825713189259 7.457342081191882 H 0.0 **** 0.06
32950 H 16.445996379459416 6.456032400683739 5.991695007622042 H 0.0 **** 0.06
32951 C 39.65712390902553 113.54827198707636 64.12261834136334 C 0.0 **** -0.24
32952 H 38.97949197501953 114.0602816554604 64.80496646305164 H 0.0 **** 0.06
32953 H 39.086634681248654 113.11280498071785 63.30179038380198 H 0.0 **** 0.06
32954 H 40.1835248218116 112.75713887626318 64.65809993744654 H 0.0 **** 0.06
32955 H 40.38001397926752 114.26081472726631 63.72495419451881 H 0.0 **** 0.06
32956 C 91.34456383022922 54.46492912334309 51.18602281651488 C 0.0 **** -0.24
32957 H 90.6264163482706 53.680856686645576 51.426542229662516 H 0.0 **** 0.06
32958 H 91.27134329773128 54.7131821173211 50.127784611906975 H 0.0 **** 0.06
32959 H 92.35239709159657 54.11518291072075 51.40904669679003 H 0.0 **** 0.06
32960 H 91.12785735340077 55.35082768154563 51.7831325428304 H 0.0 **** 0.06
32961 C 7.682236704888709 74.7737559360433 97.38824975811525 C 0.0 **** -0.24
32962 H 8.061785573648535 74.76737479604674 96.36705299199943 H 0.0 **** 0.06
32963 H 8.084243964859937 75.6364605209179 97.91951986670705 H 0.0 **** 0.06
32964 H 7.990622730474996 73.85877880252932 97.8957553944509 H 0.0 **** 0.06
32965 H 6.594228682968065 74.82991731446725 97.37089010139354 H 0.0 **** 0.06
32966 C 37.95274456358008 109.1679573141607 55.82428250462883 C 0.0 **** -0.24
32967 H 38.35040153430322 108.97147514925462 54.829122920255585 H 0.0 **** 0.06
32968 H 38.77700221837924 109.28233069862517 56.52855591374922 H 0.0 **** 0.06
32969 H 37.32282574680989 108.33352946026667 56.1340283018237 H 0.0 **** 0.06
32970 H 37.360506129746675 110.08228165766587 55.80564012126663 H 0.0 **** 0.06
32971 C 55.9781420913144 52.37981138542645 39.75456153331214 C 0.0 **** -0.24
32972 H 55.425564241585285 51.981190651182274 40.604759825489964 H 0.0 **** 0.06
32973 H 55.293527545753385 52.909368377433665 39.09162389583008 H 0.0 **** 0.06
32974 H 56.44910070177132 51.560365114385675 39.21099663435126 H 0.0 **** 0.06
32975 H 56.74485334730155 53.06829980232263 40.10998736255972 H 0.0 **** 0.06
32976 C 102.39562435750076 27.630464407491672 3.272679860332639 C 0.0 **** -0.24
32977 H 103.4610924680444 27.8004538747457 3.1188610288016463 H 0.0 **** 0.06
32978 H 102.25664880785288 26.891835115723893 4.063062437116502 H 0.0 **** 0.06
32979 H 101.94878882670156 27.26306445620162 2.34827988690631 H 0.0 **** 0.06
32980 H 101.9162748801555 28.566125214288945 3.5613889297559673 H 0.0 **** 0.06
32981 C 82.27575578803834 83.03764948447918 101.64849239320273 C 0.0 **** -0.24
32982 H 82.8714767562731 83.81895142121584 101.17639729471966 H 0.0 **** 0.06
32983 H 81.6718956114693 82.53414607935986 100.89304006639853 H 0.0 **** 0.06
32984 H 81.62164447602305 83.48351583046309 102.39877210367115 H 0.0 **** 0.06
32985 H 82.9372135766817 82.31554588835007 102.12715088724775 H 0.0 **** 0.06
32986 C 55.4606564885792 68.43810517848584 15.194831249617181 C 0.0 **** -0.24
32987 H 55.32133201172116 68.28985570421284 16.26616210839495 H 0.0 **** 0.06
32988 H 55.478006001225765 69.50577714574385 14.976257408526916 H 0.0 **** 0.06
32989 H 54.640181493211884 67.9685711240295 14.65392422452469 H 0.0 **** 0.06
32990 H 56.40462232553805 67.98789554268566 14.886387099176545 H 0.0 **** 0.06
32991 C 115.45898030175675 54.70546033465547 92.16070146716274 C 0.0 **** -0.24
32992 H 116.1906340708596 55.51371797055759 92.1734826902937 H 0.0 **** 0.06
32993 H 115.57362441091509 54.12659791371681 91.24398230626471 H 0.0 **** 0.06
32994 H 114.4542010315855 55.12580228508341 92.20240545659294 H 0.0 **** 0.06
32995 H 115.61802583858875 54.05809690805984 93.02315325244672 H 0.0 **** 0.06
32996 C 112.15081598354888 46.80899130651784 10.33035241021085 C 0.0 **** -0.24
32997 H 112.21756095603992 46.888800417398556 11.415908786804025 H 0.0 **** 0.06
32998 H 112.83311248336398 46.033184355963954 9.981671928678935 H 0.0 **** 0.06
32999 H 112.42254389191211 47.76187882616131 9.877933144719606 H 0.0 **** 0.06
33000 H 111.13073248412974 46.548754267918696 10.047420762548938 H 0.0 **** 0.06
33001 C 64.48266362730618 111.55306234421354 54.65588123303985 C 0.0 **** -0.24
33002 H 65.56849367741304 111.59725554238251 54.736615325613855 H 0.0 **** 0.06
33003 H 64.03478133628892 111.8785537458062 55.59562739925596 H 0.0 **** 0.06
33004 H 64.17604452049568 110.52880459231316 54.442012604671476 H 0.0 **** 0.06
33005 H 64.15210591672775 112.20645414371354 53.84937045368082 H 0.0 **** 0.06
33006 C 51.88639925291085 103.6342251431548 66.7801342034781 C 0.0 **** -0.24
33007 H 52.5902390095182 104.46347222918575 66.85983933238725 H 0.0 **** 0.06
33008 H 52.066039583004056 103.09362838468812 65.85051143196722 H 0.0 **** 0.06
33009 H 50.86743305826934 104.01995813035154 66.78577908244387 H 0.0 **** 0.06
33010 H 52.02460935595337 102.95953748870136 67.62562670089102 H 0.0 **** 0.06
33011 C 20.652951080848112 112.97073655976735 87.03599086999424 C 0.0 **** -0.24
33012 H 21.03789023403533 113.60104166453084 86.23425631506493 H 0.0 **** 0.06
33013 H 21.340532313029996 112.14311772534276 87.20925961634865 H 0.0 **** 0.06
33014 H 19.67531590189742 112.57969092673652 86.75253401406655 H 0.0 **** 0.06
33015 H 20.558211968048994 113.56205170009133 87.94742103303116 H 0.0 **** 0.06
33016 C 92.80328690531692 2.578366767115389 83.19186659739009 C 0.0 **** -0.24
33017 H 93.29444675007929 2.050011607118096 82.37525852288135 H 0.0 **** 0.06
33018 H 92.24368704229676 1.867351618855313 83.7996226464567 H 0.0 **** 0.06
33019 H 92.12065347102802 3.3243349106038718 82.78383456728739 H 0.0 **** 0.06
33020 H 93.55483885221591 3.0726437473243813 83.80867450078355 H 0.0 **** 0.06
33021 C 26.56084345279362 103.55963912037717 103.97246758985767 C 0.0 **** -0.24
33022 H 26.525369668691482 102.63874413296097 104.55447188034955 H 0.0 **** 0.06
33023 H 27.06858656549113 103.37236444251442 103.02551448729406 H 0.0 **** 0.06
33024 H 27.105013915427094 104.32125087089892 104.53174575362462 H 0.0 **** 0.06
33025 H 25.54625303044795 103.90734291022929 103.77865505074931 H 0.0 **** 0.06
33026 C 91.78326988581927 94.77478798627021 24.41568096805384 C 0.0 **** -0.24
33027 H 91.2416689802364 95.44500715711402 23.748344715870587 H 0.0 **** 0.06
33028 H 92.72579380625092 94.48424329399015 23.95003035515679 H 0.0 **** 0.06
33029 H 91.1817070192239 93.88583066491205 24.60423318574611 H 0.0 **** 0.06
33030 H 91.98552828599367 95.28408988287265 25.357052833285344 H 0.0 **** 0.06
33031 C 112.55486315270655 68.38833488614785 44.835559948868934 C 0.0 **** -0.24
33032 H 113.30196130246874 69.09526421680312 45.19632890378415 H 0.0 **** 0.06
33033 H 111.5577928496186 68.76628376814273 45.06183284579885 H 0.0 **** 0.06
33034 H 112.69840649610826 67.4256233809574 45.328321509089335 H 0.0 **** 0.06
33035 H 112.66137430107527 68.26419927949797 43.75877604189674 H 0.0 **** 0.06
33036 C 108.6298819109726 55.07014265192465 43.37739295769887 C 0.0 **** -0.24
33037 H 109.59665087612461 55.36385381666673 42.96718624464694 H 0.0 **** 0.06
33038 H 107.86180824810194 55.76028949536519 43.026201793733605 H 0.0 **** 0.06
33039 H 108.67430304207856 55.09851796683497 44.46559078124116 H 0.0 **** 0.06
33040 H 108.38800943815886 54.05966307227951 43.0494194293442 H 0.0 **** 0.06
33041 C 54.01248134388546 52.225294139440905 11.382236938900348 C 0.0 **** -0.24
33042 H 54.65190172327008 51.358494408590616 11.220392349489316 H 0.0 **** 0.06
33043 H 53.25743075310286 51.98494378479516 12.131405369158301 H 0.0 **** 0.06
33044 H 53.523045197469536 52.49532086623087 10.445940057888436 H 0.0 **** 0.06
33045 H 54.616276914422436 53.06279298952752 11.730715790821932 H 0.0 **** 0.06
33046 C 57.52405694251718 112.11304151268732 50.63422738774265 C 0.0 **** -0.24
33047 H 58.44387469009837 112.69592915314318 50.680533621106676 H 0.0 **** 0.06
33048 H 57.530285100834334 111.49741677077071 49.73476679932957 H 0.0 **** 0.06
33049 H 56.66793839288016 112.78756317625464 50.60876080992739 H 0.0 **** 0.06
33050 H 57.45598103022135 111.4723352073242 51.51348848299953 H 0.0 **** 0.06
33051 C 98.11498769098986 89.33849246084955 81.33596617289297 C 0.0 **** -0.24
33052 H 98.71741497150626 88.96984653196819 82.16652956487408 H 0.0 **** 0.06
33053 H 98.386495865532 88.80477669846624 80.4250338061552 H 0.0 **** 0.06
33054 H 98.29553785443548 90.40461699665616 81.20078095683331 H 0.0 **** 0.06
33055 H 97.05983930029979 89.1730394000686 81.5528258108915 H 0.0 **** 0.06
33056 C 29.015250502983406 51.359011091891546 39.80806674255274 C 0.0 **** -0.24
33057 H 29.167719253171498 50.300489932268306 40.01830277448087 H 0.0 **** 0.06
33058 H 29.665209267253374 51.66331943103188 38.98678719892527 H 0.0 **** 0.06
33059 H 29.2542877120965 51.94367047857236 40.69634292345074 H 0.0 **** 0.06
33060 H 27.974618623441927 51.52863297770591 39.531383384918456 H 0.0 **** 0.06
33061 C 69.20615503959482 54.20884619768498 38.41363983952661 C 0.0 **** -0.24
33062 H 69.54326861511072 53.177541826506115 38.523770532964555 H 0.0 **** 0.06
33063 H 69.95282860111047 54.77671935920728 37.85671367733523 H 0.0 **** 0.06
33064 H 69.07106434081669 54.65339031042072 39.399162007390295 H 0.0 **** 0.06
33065 H 68.26018586136104 54.225662287573414 37.873405229492136 H 0.0 **** 0.06
33066 C 86.33532573741604 105.98268800806633 86.57211024995587 C 0.0 **** -0.24
33067 H 86.76883383521121 104.98644673986962 86.67039628713968 H 0.0 **** 0.06
33068 H 85.26187934720929 105.89576581463737 86.4027604071195 H 0.0 **** 0.06
33069 H 86.79679674274433 106.49747632624602 85.72963031390455 H 0.0 **** 0.06
33070 H 86.514907690309 106.5483390002151 87.48623454509593 H 0.0 **** 0.06
33071 C 91.62071412938843 63.938118381172494 38.102159572960545 C 0.0 **** -0.24
33072 H 91.62431254565294 64.59427470489035 38.97275529892801 H 0.0 **** 0.06
33073 H 92.62791561576131 63.558906574434225 37.930527658093126 H 0.0 **** 0.06
33074 H 91.28873194950276 64.49689249092523 37.228087381748765 H 0.0 **** 0.06
33075 H 90.9427416125992 63.10371491027457 38.2796251667686 H 0.0 **** 0.06
33076 C 115.54062682987927 81.98622917115222 42.77683813819925 C 0.0 **** -0.24
33077 H 115.75724705758029 80.92390370318773 42.66430706013904 H 0.0 **** 0.06
33078 H 116.36330351008132 82.57004981423344 42.36376851747883 H 0.0 **** 0.06
33079 H 115.42272174350413 82.22152256956619 43.8346535192606 H 0.0 **** 0.06
33080 H 114.62003063815901 82.22686439520587 42.24627594943513 H 0.0 **** 0.06
33081 C 52.572576176438254 75.44130903459182 60.54896530982285 C 0.0 **** -0.24
33082 H 51.76995789941182 74.76685143892132 60.249972265485354 H 0.0 **** 0.06
33083 H 53.5089419376264 74.88521444643933 60.61511717170231 H 0.0 **** 0.06
33084 H 52.33903110142576 75.87549105150646 61.52104536479547 H 0.0 **** 0.06
33085 H 52.673840986918265 76.23648232329111 59.810915991577986 H 0.0 **** 0.06
33086 C 93.27050610406275 51.05557068122272 45.11571856852353 C 0.0 **** -0.24
33087 H 93.93408567168495 50.38957830222802 44.56289006425689 H 0.0 **** 0.06
33088 H 93.21655356503501 52.01807177298764 44.606885841037936 H 0.0 **** 0.06
33089 H 93.65765279998348 51.197609845664886 46.12479749914601 H 0.0 **** 0.06
33090 H 92.27513544357282 50.61505736109251 45.1668281477246 H 0.0 **** 0.06
33091 C 63.56213568944702 69.50892648842768 64.5787220172788 C 0.0 **** -0.24
33092 H 63.94876945935363 69.91257956908103 63.6435442702683 H 0.0 **** 0.06
33093 H 64.04996132332994 70.00514676176812 65.41822520793329 H 0.0 **** 0.06
33094 H 63.76169093935627 68.43816380093654 64.62229888477526 H 0.0 **** 0.06
33095 H 62.48612329959835 69.67912971552752 64.63008581341043 H 0.0 **** 0.06
33096 C 14.347828946265736 97.07506410370638 42.392925835840344 C 0.0 **** -0.24
33097 H 15.113422320002599 96.72188073528113 43.08375668387123 H 0.0 **** 0.06
33098 H 13.606857314097056 97.65870036334766 42.939109610154446 H 0.0 **** 0.06
33099 H 13.862817190439614 96.22086402029433 41.92053746156847 H 0.0 **** 0.06
33100 H 14.809307027016246 97.69933836985331 41.627059233580894 H 0.0 **** 0.06
33101 C 58.99810869329605 65.15057274013759 97.9036923639735 C 0.0 **** -0.24
33102 H 58.60031966244196 64.32110993992495 97.31761266804543 H 0.0 **** 0.06
33103 H 59.834311522215216 64.80007737426558 98.50766233067216 H 0.0 **** 0.06
33104 H 58.216404659993486 65.54318835349187 98.55419814030455 H 0.0 **** 0.06
33105 H 59.33925909398391 65.93792810951723 97.23066787727177 H 0.0 **** 0.06
33106 C 107.61711088971117 67.43052849365333 93.76950287288889 C 0.0 **** -0.24
33107 H 106.72512504168688 67.53400124273963 93.15176701255902 H 0.0 **** 0.06
33108 H 107.57322774762949 68.14485393901512 94.59230810904441 H 0.0 **** 0.06
33109 H 108.50195301023139 67.62573185452158 93.1652066492635 H 0.0 **** 0.06
33110 H 107.66638252804157 66.41789927139865 94.17039731765166 H 0.0 **** 0.06
33111 C 18.521100783888137 10.126046691481292 74.32922990691009 C 0.0 **** -0.24
33112 H 17.589594977435485 10.47421925144809 73.88367101245501 H 0.0 **** 0.06
33113 H 19.352191774962254 10.36269104444196 73.66491584293067 H 0.0 **** 0.06
33114 H 18.471391021823546 9.047397655316473 74.47830762506828 H 0.0 **** 0.06
33115 H 18.67196215079594 10.618836369003503 75.28941640724554 H 0.0 **** 0.06
33116 C 23.825552700137365 5.12211901010231 108.41103738316984 C 0.0 **** -0.24
33117 H 23.342026068372775 5.73873256614273 109.16973875610421 H 0.0 **** 0.06
33118 H 23.110714960415265 4.395650464115164 108.02415827859491 H 0.0 **** 0.06
33119 H 24.673394498592614 4.599162170964476 108.85353076784608 H 0.0 **** 0.06
33120 H 24.175227332299727 5.7572116932231125 107.59644057279877 H 0.0 **** 0.06
33121 C 3.092397239004171 41.1254608721523 104.67106961147175 C 0.0 **** -0.24
33122 H 3.4828888973004695 41.3571601993129 105.6613097707305 H 0.0 **** 0.06
33123 H 2.086852132513741 40.71555586128754 104.76417100369923 H 0.0 **** 0.06
33124 H 3.7403734423038486 40.39485224699969 104.18735087544292 H 0.0 **** 0.06
33125 H 3.060388625842819 42.03564708037379 104.07197821937638 H 0.0 **** 0.06
33126 C 83.37275951564243 91.02313973993091 34.291523557769096 C 0.0 **** -0.24
33127 H 83.44584215573707 90.3286844663601 33.45432060141857 H 0.0 **** 0.06
33128 H 82.59428474672478 90.68657608858814 34.97566160227461 H 0.0 **** 0.06
33129 H 83.12371168577056 92.0164643657852 33.916727086907116 H 0.0 **** 0.06
33130 H 84.3281663475077 91.0618235370248 34.81590832392905 H 0.0 **** 0.06
33131 C 107.90523422486433 111.35021396037395 22.688477818253006 C 0.0 **** -0.24
33132 H 108.56161395776297 111.04096581217267 21.874026903322743 H 0.0 **** 0.06
33133 H 108.34754969653125 111.06010003729274 23.640957654260376 H 0.0 **** 0.06
33134 H 106.93482555864364 110.86653002816473 22.575288331180303 H 0.0 **** 0.06
33135 H 107.77785553740944 112.43203523678154 22.66086774698789 H 0.0 **** 0.06
33136 C 31.51567998281422 95.62451100767419 65.2245187716907 C 0.0 **** -0.24
33137 H 30.736724089601438 94.92295732341341 64.92466355004021 H 0.0 **** 0.06
33138 H 31.79654255186125 96.24149789749504 64.37036982692476 H 0.0 **** 0.06
33139 H 32.386406630062964 95.07105596275733 65.57608751728637 H 0.0 **** 0.06
33140 H 31.14085780413987 96.26122888830446 66.02572575153297 H 0.0 **** 0.06
33141 C 94.85901964228975 99.30609350617601 62.609987130594384 C 0.0 **** -0.24
33142 H 94.61898717420027 99.5991837024888 63.63253716642506 H 0.0 **** 0.06
33143 H 95.3476043643011 100.13616606479363 62.09956133594287 H 0.0 **** 0.06
33144 H 93.94213027444073 99.04344547342203 62.08327392122731 H 0.0 **** 0.06
33145 H 95.52802335804589 98.44522022730376 62.62690578275157 H 0.0 **** 0.06
33146 C 40.05764443983068 38.594655106379264 82.85069617207131 C 0.0 **** -0.24
33147 H 41.01730923514066 38.79392173121249 83.32821296969962 H 0.0 **** 0.06
33148 H 39.523743409019374 39.53334314333188 82.70240784460049 H 0.0 **** 0.06
33149 H 39.465812621736205 37.935858699027506 83.48561688945443 H 0.0 **** 0.06
33150 H 40.225693130164814 38.115189384995006 81.88555560547374 H 0.0 **** 0.06
33151 C 5.226924516274995 97.39974881263382 12.940538959007966 C 0.0 **** -0.24
33152 H 5.648844351865751 97.84622949574941 12.040409197387987 H 0.0 **** 0.06
33153 H 4.138405120902586 97.44731075087995 12.89293193539757 H 0.0 **** 0.06
33154 H 5.576936652349531 97.94629687406217 13.815513022045366 H 0.0 **** 0.06
33155 H 5.542461631405587 96.35849208370112 13.01119132987236 H 0.0 **** 0.06
33156 C 43.64593444686193 60.93255704258917 93.18162423115675 C 0.0 **** -0.24
33157 H 44.37280503752635 61.59134921701087 92.70581437648218 H 0.0 **** 0.06
33158 H 42.66413462610501 61.40569262714416 93.1698434978147 H 0.0 **** 0.06
33159 H 43.9465071763111 60.745021545192 94.21314035812367 H 0.0 **** 0.06
33160 H 43.601445988683935 59.98840643525588 92.63959810615603 H 0.0 **** 0.06
33161 C 74.83304327868066 109.76425776030266 13.749687612887499 C 0.0 **** -0.24
33162 H 73.84726857635903 109.31825374327687 13.609588555636947 H 0.0 **** 0.06
33163 H 75.18587653246763 109.5528522972998 14.759548218479495 H 0.0 **** 0.06
33164 H 74.76729537005545 110.84267307962008 13.604647650884942 H 0.0 **** 0.06
33165 H 75.52904365080619 109.34131108112713 13.024910003613002 H 0.0 **** 0.06
33166 C 75.90802859389333 53.247227981132994 23.473661413050657 C 0.0 **** -0.24
33167 H 76.76854449858337 52.8952517055871 22.90496815110018 H 0.0 **** 0.06
33168 H 75.05140708760041 53.34932052203777 22.807344912399234 H 0.0 **** 0.06
33169 H 76.13916264186929 54.21477979380745 23.919879455082892 H 0.0 **** 0.06
33170 H 75.67429452283974 52.53021198452552 24.259826366634726 H 0.0 **** 0.06
33171 C 106.91049438134579 64.51705600383417 65.81603377154195 C 0.0 **** -0.24
33172 H 107.29731022415251 64.77021533319379 66.80321097482349 H 0.0 **** 0.06
33173 H 107.72597051109969 64.16373096427898 65.18553950465915 H 0.0 **** 0.06
33174 H 106.45823488870667 65.40102378095557 65.36584457248424 H 0.0 **** 0.06
33175 H 106.15834881602186 63.73353417673473 65.91074696585696 H 0.0 **** 0.06
33176 C 70.40298537369299 75.99851606390371 82.81666444868966 C 0.0 **** -0.24
33177 H 71.06652608990038 75.49111237364434 82.11601174540036 H 0.0 **** 0.06
33178 H 69.80700982934525 76.73678350151323 82.28133255993393 H 0.0 **** 0.06
33179 H 70.99681997118597 76.49654845539646 83.58274286580064 H 0.0 **** 0.06
33180 H 69.74320079723788 75.26816028594413 83.28544770160846 H 0.0 **** 0.06
33181 C 62.161680789219474 86.48870927800192 37.01446383976605 C 0.0 **** -0.24
33182 H 62.51638827391835 87.50243895596236 37.19938998741105 H 0.0 **** 0.06
33183 H 61.77560777967159 86.06405067713627 37.941823394425114 H 0.0 **** 0.06
33184 H 62.98537559774405 85.87594835433222 36.64877838299776 H 0.0 **** 0.06
33185 H 61.3677723841372 86.512911549011 36.26736966009247 H 0.0 **** 0.06
33186 C 2.33944580377603 25.86163225703983 20.097415856226153 C 0.0 **** -0.24
33187 H 1.809516322536851 25.078019292096023 19.55514703046144 H 0.0 **** 0.06
33188 H 1.6179674310927368 26.5526582669319 20.532712242039153 H 0.0 **** 0.06
33189 H 2.9904931804614137 26.400952746228405 19.409220606003068 H 0.0 **** 0.06
33190 H 2.9392254511690368 25.413486112106334 20.88862523712463 H 0.0 **** 0.06
33191 C 35.42376940312124 105.10669465676557 32.75714952741595 C 0.0 **** -0.24
33192 H 36.40178501299485 105.34114751827349 32.3347416761232 H 0.0 **** 0.06
33193 H 35.485970746595655 104.17429007046411 33.318831539099506 H 0.0 **** 0.06
33194 H 34.696844636409736 104.99980955205675 31.95251179786851 H 0.0 **** 0.06
33195 H 35.11342405654696 105.91186566549891 33.42296584411673 H 0.0 **** 0.06
33196 C 94.22450633729875 22.70818142682657 74.88947211063709 C 0.0 **** -0.24
33197 H 93.22570600712424 22.705991705430733 75.32514174571625 H 0.0 **** 0.06
33198 H 94.92748682313479 23.14927797613251 75.59718061197913 H 0.0 **** 0.06
33199 H 94.21826892738943 23.293486546810186 73.97037149926808 H 0.0 **** 0.06
33200 H 94.52594079772598 21.684747991265084 74.66802417369172 H 0.0 **** 0.06
33201 C 95.37158362895184 54.20254441021373 109.02243874986033 C 0.0 **** -0.24
33202 H 94.6878204487646 53.83897090405014 108.2552619811174 H 0.0 **** 0.06
33203 H 96.20832351908746 53.510250886056156 109.12037265486731 H 0.0 **** 0.06
33204 H 94.84544853248258 54.272760455661796 109.97496254877689 H 0.0 **** 0.06
33205 H 95.74446607483316 55.186506882550844 108.74059763148381 H 0.0 **** 0.06
33206 C 73.88468067868394 39.091179734472206 46.53038533543394 C 0.0 **** -0.24
33207 H 74.67521891611705 39.211898053993394 47.27115949635346 H 0.0 **** 0.06
33208 H 73.30793865787228 40.01319575725793 46.46084376399558 H 0.0 **** 0.06
33209 H 73.22846848918746 38.27341544570669 46.8302689198111 H 0.0 **** 0.06
33210 H 74.32734758152 38.864596836218084 45.559848765093264 H 0.0 **** 0.06
33211 C 88.2164161193528 69.60132983530605 44.262605037645244 C 0.0 **** -0.24
33212 H 87.30980930521875 69.11482493267346 44.62337237077401 H 0.0 **** 0.06
33213 H 88.47789651112402 69.20003485023409 43.283078953182326 H 0.0 **** 0.06
33214 H 89.0319212358578 69.4144198075723 44.96223286066237 H 0.0 **** 0.06
33215 H 88.04551639955449 70.67520879871404 44.181931181326945 H 0.0 **** 0.06
33216 C 91.66116949406165 86.43593072378104 81.77709653331084 C 0.0 **** -0.24
33217 H 91.21954339105096 87.1933410945143 82.4244131936016 H 0.0 **** 0.06
33218 H 90.97480555179033 85.59323261345409 81.682711590736 H 0.0 **** 0.06
33219 H 92.60104992592392 86.09212137098203 82.21009413606885 H 0.0 **** 0.06
33220 H 91.84891956879957 86.8636086596558 80.79252991563442 H 0.0 **** 0.06
33221 C 97.1183608835355 44.23460178860881 72.81400832330053 C 0.0 **** -0.24
33222 H 97.91750516309136 44.7526325652737 72.2837060450849 H 0.0 **** 0.06
33223 H 96.15485563437463 44.625114988802466 72.48770019412689 H 0.0 **** 0.06
33224 H 97.23189018356334 44.39243860020861 73.88580005374675 H 0.0 **** 0.06
33225 H 97.17079799429214 43.168087286310936 72.59592780763509 H 0.0 **** 0.06
33226 C 23.615190098703522 88.26849301081472 20.594714645910756 C 0.0 **** -0.24
33227 H 23.50869380708056 89.18589614099474 21.174138529335664 H 0.0 **** 0.06
33228 H 22.767612323696312 87.61273146529922 20.795878064628766 H 0.0 **** 0.06
33229 H 24.54000767334665 87.76581311981963 20.877602150311077 H 0.0 **** 0.06
33230 H 23.642801797601493 88.51152284932718 19.532392627146407 H 0.0 **** 0.06
33231 C 5.86743547647518 6.449759083788933 6.6281687413697625 C 0.0 **** -0.24
33232 H 5.541371899483636 7.458813294436283 6.882684315966642 H 0.0 **** 0.06
33233 H 6.85560036458628 6.493251059298132 6.169504807857308 H 0.0 **** 0.06
33234 H 5.160718118767079 6.006489757735409 5.927237363688519 H 0.0 **** 0.06
33235 H 5.912226192617368 5.84397951973861 7.532388730611444 H 0.0 **** 0.06
33236 C 50.558227492012804 75.81306409726213 75.49109582614511 C 0.0 **** -0.24
33237 H 49.79748401052606 75.03555590602639 75.41181520828599 H 0.0 **** 0.06
33238 H 50.4649613188285 76.31544550803062 76.45370129084685 H 0.0 **** 0.06
33239 H 50.42108202967037 76.5374422193673 74.68743825052411 H 0.0 **** 0.06
33240 H 51.54772241565436 75.36251976269423 75.40953847776936 H 0.0 **** 0.06
33241 C 113.21038974811052 24.910110908362228 63.590651190792016 C 0.0 **** -0.24
33242 H 113.58383060608658 23.989189142408712 64.0375101637112 H 0.0 **** 0.06
33243 H 112.12488112353199 24.859058527505653 63.50819135622527 H 0.0 **** 0.06
33244 H 113.64547824360643 25.035732113439394 62.5993014720014 H 0.0 **** 0.06
33245 H 113.48810303435484 25.75728186532482 64.21979093115135 H 0.0 **** 0.06
33246 C 49.78052265122222 26.18009425535527 36.33029962577936 C 0.0 **** -0.24
33247 H 49.90504913223315 26.444760707355954 37.380405715741006 H 0.0 **** 0.06
33248 H 49.07967146791679 26.87254986055649 35.862030550395446 H 0.0 **** 0.06
33249 H 49.39174192171842 25.163868230568283 36.25545809054978 H 0.0 **** 0.06
33250 H 50.74331134291834 26.239012961854286 35.82407793059292 H 0.0 **** 0.06
33251 C 13.15176961581507 66.48781572113256 74.99147947422111 C 0.0 **** -0.24
33252 H 13.545643403011464 66.31581339154292 73.99026543695643 H 0.0 **** 0.06
33253 H 12.80260730857567 65.54437277844278 75.41188059118167 H 0.0 **** 0.06
33254 H 12.322583780276112 67.19301699213935 74.93928797518117 H 0.0 **** 0.06
33255 H 13.938559730887153 66.89802670934722 75.62528171335768 H 0.0 **** 0.06
33256 C 70.77043209629508 9.788122857883252 18.69018348174238 C 0.0 **** -0.24
33257 H 71.43119771282082 10.221155616093768 17.93862546944277 H 0.0 **** 0.06
33258 H 70.42859385698799 10.571738937629107 19.36631543678935 H 0.0 **** 0.06
33259 H 71.31270995372236 9.03117043330559 19.256073638443553 H 0.0 **** 0.06
33260 H 69.91152842106499 9.330319337670119 18.199372536263496 H 0.0 **** 0.06
33261 C 101.99434211428948 32.471245794365075 57.22530564053704 C 0.0 **** -0.24
33262 H 102.33515755144379 33.28075780613142 56.58014745670534 H 0.0 **** 0.06
33263 H 101.12307111680315 32.800146762610325 57.79230564628141 H 0.0 **** 0.06
33264 H 102.79375938039794 32.19546156470193 57.913836048176286 H 0.0 **** 0.06
33265 H 101.7273594143698 31.60936470281203 56.614208957814974 H 0.0 **** 0.06
33266 C 68.42345224929247 75.39356323065633 93.23135098580656 C 0.0 **** -0.24
33267 H 68.24284602437814 75.94051714808134 94.15650651060494 H 0.0 **** 0.06
33268 H 68.87819921264017 76.05900733277844 92.4977984731891 H 0.0 **** 0.06
33269 H 67.4774709905943 75.01650635006558 92.8424171289522 H 0.0 **** 0.06
33270 H 69.09396145131595 74.55722696429189 93.42916915719846 H 0.0 **** 0.06
33271 C 66.60118882042408 9.202300366569439 39.86262561512757 C 0.0 **** -0.24
33272 H 66.43098703865056 10.278805480517775 39.88201799827641 H 0.0 **** 0.06
33273 H 66.95485717561633 8.873402208666025 40.840978208312805 H 0.0 **** 0.06
33274 H 67.3511157918025 8.966924346077718 39.10683550895348 H 0.0 **** 0.06
33275 H 65.66932050320656 8.690831690042788 39.62211744198379 H 0.0 **** 0.06
33276 C 105.86037059253923 34.71345215663209 95.02276886228654 C 0.0 **** -0.24
33277 H 105.03594557566569 34.543915136107444 95.71548999370935 H 0.0 **** 0.06
33278 H 105.49280037128489 35.23922974966584 94.14208789562772 H 0.0 **** 0.06
33279 H 106.28601224013656 33.75513460886259 94.72343678725343 H 0.0 **** 0.06
33280 H 106.6280012904715 35.31471031967581 95.51089666572346 H 0.0 **** 0.06
33281 C 3.0666075690881485 10.311806090380852 65.57573382705615 C 0.0 **** -0.24
33282 H 3.9179021597145436 9.836615709628646 65.09050350778509 H 0.0 **** 0.06
33283 H 2.71359808598865 11.140332916039728 64.96043823975563 H 0.0 **** 0.06
33284 H 3.3678290328615503 10.688343700135704 66.55341426525561 H 0.0 **** 0.06
33285 H 2.265086120452338 9.583220993091665 65.69910769538544 H 0.0 **** 0.06
33286 C 37.45050235115629 15.599784919154246 78.16969227822813 C 0.0 **** -0.24
33287 H 36.729791272585345 15.787208590975183 78.96605018183203 H 0.0 **** 0.06
33288 H 37.61638841836016 16.51829504451848 77.60704504666825 H 0.0 **** 0.06
33289 H 37.061620373407436 14.829967040753814 77.50287728941561 H 0.0 **** 0.06
33290 H 38.39222153659229 15.263496239426132 78.60293451666621 H 0.0 **** 0.06
33291 C 87.67794441839467 18.797653193538622 1.1607928158258272 C 0.0 **** -0.24
33292 H 88.54454639499716 19.218272106771593 1.6707680141994352 H 0.0 **** 0.06
33293 H 86.89490962533361 19.553944607629944 1.0930073549345156 H 0.0 **** 0.06
33294 H 87.3069526837617 17.940338568321096 1.7225612178952776 H 0.0 **** 0.06
33295 H 87.96490959365667 18.479706523921806 0.15858682181448813 H 0.0 **** 0.06
33296 C 26.275422197316317 46.437246885656236 13.899515590077954 C 0.0 **** -0.24
33297 H 25.268476313523138 46.85287888984004 13.914479563259931 H 0.0 **** 0.06
33298 H 26.69812952243521 46.54409860508213 12.90027626928196 H 0.0 **** 0.06
33299 H 26.2352176362088 45.380711456724896 14.16710581109254 H 0.0 **** 0.06
33300 H 26.898619814148844 46.96964108950698 14.61812474258062 H 0.0 **** 0.06
33301 C 13.048975806193965 52.17553344047133 83.03008217997404 C 0.0 **** -0.24
33302 H 12.782862815909311 51.820680518367254 82.03507405515109 H 0.0 **** 0.06
33303 H 12.145569167741712 52.47607297912921 83.56206664990918 H 0.0 **** 0.06
33304 H 13.720614275860953 53.02892911488871 82.94452241733256 H 0.0 **** 0.06
33305 H 13.544409588435983 51.37574727060675 83.58025160620895 H 0.0 **** 0.06
33306 C 107.53716059294811 21.14528693189367 102.57440578797195 C 0.0 **** -0.24
33307 H 108.50356011917947 20.796712596521157 102.21099717689779 H 0.0 **** 0.06
33308 H 107.57660737579502 21.260531598308855 103.6578473494595 H 0.0 **** 0.06
33309 H 106.7669736925784 20.419018458654936 102.31438806190303 H 0.0 **** 0.06
33310 H 107.30064476088378 22.105266687172207 102.11473836894768 H 0.0 **** 0.06
33311 C 82.35422853699924 57.533405387443224 110.61803782323867 C 0.0 **** -0.24
33312 H 82.13617674263807 58.564866125857776 110.34149647819137 H 0.0 **** 0.06
33313 H 83.05992465487185 57.10696256331036 109.90465327655093 H 0.0 **** 0.06
33314 H 81.43159959720461 56.952427554615696 110.60805746416735 H 0.0 **** 0.06
33315 H 82.7873894762121 57.50856360530011 111.61776600060796 H 0.0 **** 0.06
33316 C 98.12758885463828 11.193222053205432 64.29210958758136 C 0.0 **** -0.24
33317 H 97.12034244957579 11.496398955302851 64.00595504029471 H 0.0 **** 0.06
33318 H 98.80814612906914 11.358366509750965 63.4566384093044 H 0.0 **** 0.06
33319 H 98.12639365359979 10.135511744384047 64.55644738251235 H 0.0 **** 0.06
33320 H 98.45435228839906 11.781962479139708 65.14882908151367 H 0.0 **** 0.06
33321 C 79.27280443390904 80.10800423603976 48.444141879847315 C 0.0 **** -0.24
33322 H 80.14269934427026 80.65750129623183 48.80292698229808 H 0.0 **** 0.06
33323 H 78.64527002304766 80.7714478363346 47.84744411034562 H 0.0 **** 0.06
33324 H 78.70189039024584 79.73550837348128 49.29388058910078 H 0.0 **** 0.06
33325 H 79.60098371521335 79.26923664019813 47.83006919907276 H 0.0 **** 0.06
33326 C 99.26927953901892 58.628515578901215 45.52289878510612 C 0.0 **** -0.24
33327 H 100.34631587341565 58.70750101763036 45.67379296360406 H 0.0 **** 0.06
33328 H 98.81287933895356 59.61078374888791 45.64473087713043 H 0.0 **** 0.06
33329 H 98.85091091238408 57.93865951566619 46.256047671207455 H 0.0 **** 0.06
33330 H 99.06998938700707 58.25578499127738 44.51855956676923 H 0.0 **** 0.06
33331 C 113.90269104871568 32.94737387768659 37.26645337970007 C 0.0 **** -0.24
33332 H 113.11403374245062 33.64097285874615 36.97627753089063 H 0.0 **** 0.06
33333 H 114.4960657012761 33.388315076593955 38.06831897183102 H 0.0 **** 0.06
33334 H 114.54396581003303 32.74591879865079 36.40898009298431 H 0.0 **** 0.06
33335 H 113.45693366345273 32.01572801732439 37.614205130477444 H 0.0 **** 0.06
33336 C 70.43576297033945 100.3105952512023 62.921065309050675 C 0.0 **** -0.24
33337 H 69.96608994391823 101.0819521950215 62.30966465990184 H 0.0 **** 0.06
33338 H 71.42315276601772 100.64966873429805 63.237014077647586 H 0.0 **** 0.06
33339 H 70.53511036812432 99.39517603664717 62.3377705970766 H 0.0 **** 0.06
33340 H 69.81972634563823 100.11777798581969 63.799449821890335 H 0.0 **** 0.06
33341 C 58.67831908707572 20.339423693542614 101.78536796260067 C 0.0 **** -0.24
33342 H 58.66242067766697 21.01333534290697 102.64180901895332 H 0.0 **** 0.06
33343 H 57.773402758497895 19.73325230132673 101.78227866839114 H 0.0 **** 0.06
33344 H 59.55184468270116 19.689593170597732 101.85112037961198 H 0.0 **** 0.06
33345 H 58.72955475394568 20.923169511149638 100.86543601810928 H 0.0 **** 0.06
33346 C 4.048225669687433 15.902358483804136 104.89430421163445 C 0.0 **** -0.24
33347 H 4.501738727090723 16.23559882975934 103.96081251618952 H 0.0 **** 0.06
33348 H 4.827678885337663 15.543504373188142 105.56803004658792 H 0.0 **** 0.06
33349 H 3.344658559624639 15.09628575929483 104.68990519266703 H 0.0 **** 0.06
33350 H 3.521752065739948 16.735667633234243 105.3598140195727 H 0.0 **** 0.06
33351 C 44.14148788478518 19.20009637599739 93.30792257000596 C 0.0 **** -0.24
33352 H 44.94779343611356 19.828580109793933 93.68626967132269 H 0.0 **** 0.06
33353 H 44.20447102319688 18.213906711561606 93.76725360707312 H 0.0 **** 0.06
33354 H 44.23290297585061 19.103926173490606 92.22605865313275 H 0.0 **** 0.06
33355 H 43.18125613731649 19.65526073231453 93.55245154186738 H 0.0 **** 0.06
33356 C 91.04156920258163 21.466819618866964 83.63334705418097 C 0.0 **** -0.24
33357 H 91.27927420608108 22.447735845620656 84.04479528439637 H 0.0 **** 0.06
33358 H 90.89005601527771 20.758691839972045 84.44822605566472 H 0.0 **** 0.06
33359 H 91.86477796677866 21.128130610922938 83.00455533035168 H 0.0 **** 0.06
33360 H 90.13232961326156 21.53453773123431 83.03663058097257 H 0.0 **** 0.06
33361 C 45.01782055556339 54.022190995967144 80.81226253315455 C 0.0 **** -0.24
33362 H 44.857947748848176 53.28010735406431 81.59482470398137 H 0.0 **** 0.06
33363 H 45.103373194612516 55.01125354485968 81.2637113776361 H 0.0 **** 0.06
33364 H 44.17433499178668 54.01008588801934 80.12229767173139 H 0.0 **** 0.06
33365 H 45.9342866047532 53.78875829796566 80.2704811092095 H 0.0 **** 0.06
33366 C 60.641001328283096 70.1772486207843 1.2006762903782402 C 0.0 **** -0.24
33367 H 60.36938585421922 71.04764464152609 1.798185104345265 H 0.0 **** 0.06
33368 H 59.753263481529444 69.57490438277276 1.01154719076564 H 0.0 **** 0.06
33369 H 61.37791172760336 69.58163541973423 1.7403447047380212 H 0.0 **** 0.06
33370 H 61.065632255884594 70.50725810311417 0.2521588531948282 H 0.0 **** 0.06
33371 C 33.13978356333871 15.707264957170167 45.77325965814458 C 0.0 **** -0.24
33372 H 34.13138353226708 16.049866716104106 46.06887511402033 H 0.0 **** 0.06
33373 H 32.73383550026523 16.37917070230884 45.01681413742165 H 0.0 **** 0.06
33374 H 32.48391466979666 15.699450411310096 46.6439173993694 H 0.0 **** 0.06
33375 H 33.212150698700015 14.69969380764391 45.36265352605449 H 0.0 **** 0.06
33376 C 17.01274893497721 114.0121587540124 103.57705379366428 C 0.0 **** -0.24
33377 H 16.830937261831636 115.00499879863378 103.98735742571469 H 0.0 **** 0.06
33378 H 18.084663027683234 113.87051977901007 103.43217916874411 H 0.0 **** 0.06
33379 H 16.500374349031787 113.91473474297896 102.62018871308243 H 0.0 **** 0.06
33380 H 16.63707690797031 113.25861078104214 104.26980193695806 H 0.0 **** 0.06
33381 C 36.09293710817502 91.24735361240002 73.05182407959799 C 0.0 **** -0.24
33382 H 37.15086276709141 91.39360162641924 72.83387274646239 H 0.0 **** 0.06
33383 H 35.50224982417262 91.50214514720528 72.17175374934934 H 0.0 **** 0.06
33384 H 35.80187945146109 91.88810211261719 73.88343077275195 H 0.0 **** 0.06
33385 H 35.91781228950235 90.20440057299191 73.3175123808634 H 0.0 **** 0.06
33386 C 80.43298343436365 78.30359987095088 96.21105057948017 C 0.0 **** -0.24
33387 H 79.81749692165076 78.17612327980797 97.10086851813148 H 0.0 **** 0.06
33388 H 81.01050209077485 79.2248177139088 96.2978488833472 H 0.0 **** 0.06
33389 H 79.79243355618891 78.35807112551373 95.33116725521376 H 0.0 **** 0.06
33390 H 81.11184592430274 77.45628688997616 96.11458609328662 H 0.0 **** 0.06
33391 C 57.552485730764204 27.37719037537508 21.538264555350906 C 0.0 **** -0.24
33392 H 56.785414593209396 28.016852185400012 21.974683619575245 H 0.0 **** 0.06
33393 H 57.42318206694188 27.341017822557106 20.456249715442908 H 0.0 **** 0.06
33394 H 57.464059744285464 26.371721795600266 21.950196305574053 H 0.0 **** 0.06
33395 H 58.53740242622359 27.780606011803513 21.773638510099516 H 0.0 **** 0.06
33396 C 36.67745250220955 90.4152021073213 59.576707908340616 C 0.0 **** -0.24
33397 H 36.07099244125206 90.33963783046727 60.478544991745586 H 0.0 **** 0.06
33398 H 37.72255039642741 90.22717176000305 59.82545883634416 H 0.0 **** 0.06
33399 H 36.578167795953476 91.41458900824347 59.15483322552068 H 0.0 **** 0.06
33400 H 36.33881314613964 89.67823584446938 58.849049312815204 H 0.0 **** 0.06
33401 C 98.2546624906438 61.867122273161215 39.597095403423424 C 0.0 **** -0.24
33402 H 98.62681189107835 61.90525665058371 38.57317666974373 H 0.0 **** 0.06
33403 H 98.45982880151078 62.815710620673514 40.09289967507844 H 0.0 **** 0.06
33404 H 98.75434510784345 61.0607614857133 40.13517960237584 H 0.0 **** 0.06
33405 H 97.18036186810721 61.686106986259034 39.58658162470587 H 0.0 **** 0.06
33406 C 57.97277316610683 7.699255797292068 115.97967285049795 C 0.0 **** -0.24
33407 H 57.68513280598367 8.17528677208719 115.04262564850733 H 0.0 **** 0.06
33408 H 57.80777175705455 8.393719246858495 116.80421944819669 H 0.0 **** 0.06
33409 H 59.02699678577332 7.425698640572307 115.93977309844253 H 0.0 **** 0.06
33410 H 57.36966205119174 6.803901519841787 116.13314830715412 H 0.0 **** 0.06
33411 C 35.30585673948207 42.33722406010122 46.20072413852651 C 0.0 **** -0.24
33412 H 34.83546607917987 41.40982809807963 45.875780677444595 H 0.0 **** 0.06
33413 H 36.00982023221451 42.67370854682716 45.439717209742184 H 0.0 **** 0.06
33414 H 35.83736500192782 42.16514455196685 47.13737703700423 H 0.0 **** 0.06
33415 H 34.54111389843189 43.098966551306916 46.35184567535447 H 0.0 **** 0.06
33416 C 0.14955606652642928 45.3034848856399 57.2425842814577 C 0.0 **** -0.24
33417 H 0.6740376963181802 44.36144459269504 57.081360537420146 H 0.0 **** 0.06
33418 H 0.8159694327143825 46.01100981066942 57.73716161707615 H 0.0 **** 0.06
33419 H -0.7254071121483321 45.12896196210165 57.870218137490134 H 0.0 **** 0.06
33420 H -0.16687135184963608 45.71166734685533 56.2833352717583 H 0.0 **** 0.06
33421 C 2.8547969308511423 33.88187010669293 10.723733477306734 C 0.0 **** -0.24
33422 H 2.135990242328031 33.11558491626789 11.014000455102856 H 0.0 **** 0.06
33423 H 3.7900427015283533 33.72377917054348 11.26030923143664 H 0.0 **** 0.06
33424 H 2.4557355285451763 34.86587558849027 10.971170765079332 H 0.0 **** 0.06
33425 H 3.0362130494002244 33.82164850808408 9.650546389268573 H 0.0 **** 0.06
33426 C 75.33199387616045 28.62701544895475 94.78942782181534 C 0.0 **** -0.24
33427 H 75.82427501266909 29.34259959822981 95.44891523199504 H 0.0 **** 0.06
33428 H 74.34922321897074 29.008171576339407 94.50809895256361 H 0.0 **** 0.06
33429 H 75.21753150647504 27.675162646911986 95.30747177668724 H 0.0 **** 0.06
33430 H 75.936777540605 28.483016370721487 93.89431278544268 H 0.0 **** 0.06
33431 C 44.8140388251839 56.07543512170821 53.76706706036648 C 0.0 **** -0.24
33432 H 44.9384853171554 55.281026186707976 54.50335879227091 H 0.0 **** 0.06
33433 H 43.88824419395996 55.91509158931595 53.21430469535342 H 0.0 **** 0.06
33434 H 45.65643937286893 56.06510532458776 53.07589013571741 H 0.0 **** 0.06
33435 H 44.77190217355849 57.03815651257909 54.27583316930473 H 0.0 **** 0.06
33436 C 89.11569356630494 97.70330236881733 34.119707125705304 C 0.0 **** -0.24
33437 H 88.56627056867265 98.57213767830444 34.481931546345606 H 0.0 **** 0.06
33438 H 88.43338191017483 96.85855881779861 34.02033331012265 H 0.0 **** 0.06
33439 H 89.9056545343428 97.4518963792425 34.827177720612326 H 0.0 **** 0.06
33440 H 89.55562507060424 97.93081743459635 33.14863341977332 H 0.0 **** 0.06
33441 C 100.06820096679354 103.962170003882 17.623445405195397 C 0.0 **** -0.24
33442 H 100.89262001574079 103.3238152503165 17.304053063603902 H 0.0 **** 0.06
33443 H 99.93287809069272 104.76783494704708 16.901083481770243 H 0.0 **** 0.06
33444 H 100.29550476957775 104.38494219102373 18.602056473578756 H 0.0 **** 0.06
33445 H 99.15479863019914 103.37140057993119 17.68585191543619 H 0.0 **** 0.06
33446 C 81.15870182226143 101.08073541435135 114.0954474633996 C 0.0 **** -0.24
33447 H 82.0772611701164 101.56696475925253 114.42474632954367 H 0.0 **** 0.06
33448 H 80.4063794364466 101.83865029953392 113.87446084156555 H 0.0 **** 0.06
33449 H 80.79259799663066 100.4231606379752 114.88356505390428 H 0.0 **** 0.06
33450 H 81.36007556584451 100.4955531107556 113.1981201780264 H 0.0 **** 0.06
33451 C 87.08106778292338 25.984530944290356 3.878742726739489 C 0.0 **** -0.24
33452 H 87.35638287887582 25.213431060231954 3.158925001967674 H 0.0 **** 0.06
33453 H 87.50536631487242 25.739755252575605 4.852968900401507 H 0.0 **** 0.06
33454 H 85.99534881640696 26.03777962047883 3.9570488517738625 H 0.0 **** 0.06
33455 H 87.46967829606655 26.947456343195228 3.5447493005409285 H 0.0 **** 0.06
33456 C 75.41744804690981 49.34797073809602 9.08152238029487 C 0.0 **** -0.24
33457 H 75.28646917785045 50.22134275594732 8.442456786400886 H 0.0 **** 0.06
33458 H 76.00492529681546 49.62264870745861 9.957474688225759 H 0.0 **** 0.06
33459 H 75.93601195667324 48.56659238415892 8.525956627721268 H 0.0 **** 0.06
33460 H 74.44144312682704 48.980360035853096 9.399092467388908 H 0.0 **** 0.06
33461 C 96.03226733565285 18.412262688031177 113.72413165038287 C 0.0 **** -0.24
33462 H 95.1626810240343 17.77418904376654 113.88038661838152 H 0.0 **** 0.06
33463 H 95.72468057811994 19.327231380884285 113.21624511068333 H 0.0 **** 0.06
33464 H 96.76494664282438 17.8849955588378 113.11298078023202 H 0.0 **** 0.06
33465 H 96.47604153424078 18.662915018731667 114.68809891479916 H 0.0 **** 0.06
33466 C 36.96012359799333 40.71084048276655 38.624494034128745 C 0.0 **** -0.24
33467 H 37.7455412361918 41.363863144335845 38.24628853291463 H 0.0 **** 0.06
33468 H 36.892063941742606 39.82239777035083 37.997172457936614 H 0.0 **** 0.06
33469 H 36.00766512016544 41.241198311927086 38.608764404308815 H 0.0 **** 0.06
33470 H 37.193983556747725 40.41614880576608 39.64759486500432 H 0.0 **** 0.06
33471 C 108.9920141821573 63.461803961947794 21.73549947785581 C 0.0 **** -0.24
33472 H 109.1158566890078 64.53863375790473 21.856704575358776 H 0.0 **** 0.06
33473 H 109.93108114891614 62.95990775394159 21.970946831358617 H 0.0 **** 0.06
33474 H 108.7106128126357 63.24302963434371 20.70556937788885 H 0.0 **** 0.06
33475 H 108.21150736041733 63.10767817755192 22.407848279403737 H 0.0 **** 0.06
33476 C 77.56183759875327 102.95377112094809 13.57352584907872 C 0.0 **** -0.24
33477 H 78.28610913009965 103.74937780809708 13.748496468527009 H 0.0 **** 0.06
33478 H 77.40515780982705 102.83623372924833 12.500804809793323 H 0.0 **** 0.06
33479 H 76.61765447052656 103.21087818252806 14.052851521467744 H 0.0 **** 0.06
33480 H 77.93973496674917 102.02071021303101 13.99027136812532 H 0.0 **** 0.06
33481 C 0.7186881876622007 108.42467814560632 25.354304263932306 C 0.0 **** -0.24
33482 H 0.42536818207886284 107.4516053078321 25.747764007318793 H 0.0 **** 0.06
33483 H 1.6267325951316813 108.31844905587897 24.761237093852614 H 0.0 **** 0.06
33484 H 0.9019057062672999 109.11008382914889 26.18176142366974 H 0.0 **** 0.06
33485 H -0.08139289457260013 108.81820481272453 24.72591816324963 H 0.0 **** 0.06
33486 C 85.48680337676083 11.067705494974092 71.46875094833626 C 0.0 **** -0.24
33487 H 85.4431859671212 11.798710404034182 72.27690154310426 H 0.0 **** 0.06
33488 H 84.94414474581853 10.169114996071812 71.76228747260922 H 0.0 **** 0.06
33489 H 86.52796766043957 10.81393663225839 71.26628035730897 H 0.0 **** 0.06
33490 H 85.03422860007612 11.490287551496891 70.57220681145515 H 0.0 **** 0.06
33491 C 99.95862956074649 50.65209116777814 70.14859013456962 C 0.0 **** -0.24
33492 H 99.68010283368105 51.65476245317714 69.82499919826643 H 0.0 **** 0.06
33493 H 101.03376434348908 50.51670876713746 70.02863680803671 H 0.0 **** 0.06
33494 H 99.4296776346134 49.91567218557549 69.54269247625797 H 0.0 **** 0.06
33495 H 99.69022240826285 50.52094377588287 71.19619924464942 H 0.0 **** 0.06
33496 C 115.8005143425841 19.292059570078493 11.651306377961362 C 0.0 **** -0.24
33497 H 115.12319157799888 20.010833988515486 11.190803244094127 H 0.0 **** 0.06
33498 H 116.82653583789899 19.524442662575154 11.364503299924422 H 0.0 **** 0.06
33499 H 115.54761966433034 18.286516065495107 11.31442133195236 H 0.0 **** 0.06
33500 H 115.70471029010812 19.346445563728253 12.735497635874538 H 0.0 **** 0.06
33501 C 8.76379761957179 113.19995668217051 9.369401760322006 C 0.0 **** -0.24
33502 H 9.553480418699394 113.75838403786335 8.866559895183912 H 0.0 **** 0.06
33503 H 8.421584316578361 112.39110862237474 8.72363256640159 H 0.0 **** 0.06
33504 H 7.930253655089132 113.86772517455384 9.587650881949543 H 0.0 **** 0.06
33505 H 9.14941134293116 112.78437435327601 10.301056430308847 H 0.0 **** 0.06
33506 C 104.73129622587413 52.0784277091866 42.31592243789868 C 0.0 **** -0.24
33507 H 103.86317297553637 52.31638265006268 42.929226061641685 H 0.0 **** 0.06
33508 H 105.56009133755884 52.733103506839996 42.58841706906858 H 0.0 **** 0.06
33509 H 104.48419395814744 52.22373954392282 41.263787956594825 H 0.0 **** 0.06
33510 H 105.01952884042225 51.040342782112475 42.480605748861876 H 0.0 **** 0.06
33511 C 15.825244001993042 111.26162691868463 62.090727299685234 C 0.0 **** -0.24
33512 H 15.02837206352551 110.52649879463493 61.97516450674569 H 0.0 **** 0.06
33513 H 16.77060736029736 110.74686224888666 62.26662644618727 H 0.0 **** 0.06
33514 H 15.601634192865575 111.91013997619558 62.93822507230765 H 0.0 **** 0.06
33515 H 15.90079258774783 111.86094676696447 61.183649534819715 H 0.0 **** 0.06
33516 C 1.065981648830217 44.298754424723306 46.75206684296555 C 0.0 **** -0.24
33517 H 1.0453014366528208 45.3848447231027 46.83914800551085 H 0.0 **** 0.06
33518 H 2.0441452518375485 43.92838012318166 47.05825924400028 H 0.0 **** 0.06
33519 H 0.8771358536549201 44.01361595737952 45.71711018429224 H 0.0 **** 0.06
33520 H 0.29734405317532264 43.86817689522953 47.39374993805879 H 0.0 **** 0.06
33521 C 93.98487868905977 68.95570544710648 42.739960256767915 C 0.0 **** -0.24
33522 H 93.60999558111143 69.47770923629469 43.619981635826946 H 0.0 **** 0.06
33523 H 95.0743014224073 68.99540782880604 42.730535941941184 H 0.0 **** 0.06
33524 H 93.59526416212003 69.43222626748098 41.841023480880665 H 0.0 **** 0.06
33525 H 93.65914157003655 67.91558211996158 42.76916299975102 H 0.0 **** 0.06
33526 C 96.54036680315608 89.33274850274978 30.817707102796128 C 0.0 **** -0.24
33527 H 96.13731981069611 90.32458475884559 30.61205946731785 H 0.0 **** 0.06
33528 H 96.18157842355987 88.63194637636559 30.063322391434276 H 0.0 **** 0.06
33529 H 96.21331137869811 89.0044370723302 31.80410575343806 H 0.0 **** 0.06
33530 H 97.62913283428637 89.37098256564488 30.789323540962528 H 0.0 **** 0.06
33531 C 37.83678668497345 95.41309149049519 101.16369670240277 C 0.0 **** -0.24
33532 H 37.489839013046264 94.73584587779655 100.38361104859808 H 0.0 **** 0.06
33533 H 37.02306654218518 96.07555316352125 101.458732332039 H 0.0 **** 0.06
33534 H 38.66888962311276 96.00702041444168 100.78525368924159 H 0.0 **** 0.06
33535 H 38.166201071740204 94.8344729297973 102.02722535861011 H 0.0 **** 0.06
33536 C 56.74849343715935 62.15329988576632 99.00572192231041 C 0.0 **** -0.24
33537 H 57.604350256044775 61.48059431504192 98.95113913946955 H 0.0 **** 0.06
33538 H 56.728025790607525 62.78669098828751 98.11761839156028 H 0.0 **** 0.06
33539 H 56.83243874855216 62.77797543557521 99.89482067258123 H 0.0 **** 0.06
33540 H 55.830603658887235 61.56905714649658 99.05672826168251 H 0.0 **** 0.06
33541 C 82.65212601417815 79.05231726270108 46.785715904766136 C 0.0 **** -0.24
33542 H 82.18862304664447 78.07289449727782 46.66985833045436 H 0.0 **** 0.06
33543 H 81.97697804378521 79.82117357880131 46.40946708650563 H 0.0 **** 0.06
33544 H 83.58546963403245 79.08100399333793 46.22298172750939 H 0.0 **** 0.06
33545 H 82.85883536507419 79.23521315348884 47.84051320368903 H 0.0 **** 0.06
33546 C 36.515548972884766 93.09249011958343 33.298145373420425 C 0.0 **** -0.24
33547 H 36.60471054751046 93.58095433442747 32.32709441179543 H 0.0 **** 0.06
33548 H 35.64959185221088 92.43040952174164 33.292995472843586 H 0.0 **** 0.06
33549 H 36.39122092835383 93.84822742291766 34.073262519639 H 0.0 **** 0.06
33550 H 37.416265122092646 92.51289152098622 33.49649546593429 H 0.0 **** 0.06
33551 C 75.82341423095693 10.163111978041826 58.10059750783424 C 0.0 **** -0.24
33552 H 76.45309942689931 9.412697614244355 58.57833989447056 H 0.0 **** 0.06
33553 H 76.1804888150657 10.343480328109123 57.086554127342026 H 0.0 **** 0.06
33554 H 75.86799508283605 11.090412196225468 58.671310034676026 H 0.0 **** 0.06
33555 H 74.79503453181366 9.806245566841032 58.06647409960377 H 0.0 **** 0.06
33556 C 104.86124221209991 56.18824097898342 69.48415042145285 C 0.0 **** -0.24
33557 H 104.37453900948475 56.787065781266996 68.71408559599888 H 0.0 **** 0.06
33558 H 104.60579855185952 56.584530769808545 70.46709799151662 H 0.0 **** 0.06
33559 H 105.94164590395422 56.22692688579529 69.34639989438912 H 0.0 **** 0.06
33560 H 104.52183239408734 55.15503613787486 69.40958027419907 H 0.0 **** 0.06
33561 C 77.16631891301057 100.60476677191056 10.275613805632318 C 0.0 **** -0.24
33562 H 77.84923048268973 101.17017623010852 9.641788214660451 H 0.0 **** 0.06
33563 H 76.47936852779631 101.28998472000845 10.771411594115719 H 0.0 **** 0.06
33564 H 77.73694041356407 100.05579507500065 11.02423327116395 H 0.0 **** 0.06
33565 H 76.60070963034894 99.90249486591267 9.66310561452056 H 0.0 **** 0.06
33566 C 64.6420073356264 89.48435219548628 0.41810459455018645 C 0.0 **** -0.24
33567 H 65.27693282906262 90.3707176277249 0.4171337030156508 H 0.0 **** 0.06
33568 H 64.3800799703804 89.22663470528005 1.4436925446715918 H 0.0 **** 0.06
33569 H 65.17820792144587 88.65373300774957 -0.04102574640617718 H 0.0 **** 0.06
33570 H 63.73370359444067 89.68828724619016 -0.1496936321261444 H 0.0 **** 0.06
33571 C 38.885953219564385 26.582646247510638 96.8622970992264 C 0.0 **** -0.24
33572 H 39.54094515521899 27.060663535543767 97.5908106613739 H 0.0 **** 0.06
33573 H 38.029343938134616 27.227974106888496 96.66651537230396 H 0.0 **** 0.06
33574 H 38.53982344746407 25.627049748285742 97.25766091312246 H 0.0 **** 0.06
33575 H 39.43455538296064 26.415417398779653 95.93593319427958 H 0.0 **** 0.06
33576 C 29.84298791608535 105.2119165628599 100.08416586493757 C 0.0 **** -0.24
33577 H 30.02572347614762 104.1382082801295 100.12637012236252 H 0.0 **** 0.06
33578 H 28.89746085588115 105.3993913819939 99.57428176370018 H 0.0 **** 0.06
33579 H 30.652690060962755 105.69627926875972 99.54011985476183 H 0.0 **** 0.06
33580 H 29.795241067493407 105.61191200687756 101.09722749960162 H 0.0 **** 0.06
33581 C 68.18168486538065 15.511174113904758 77.63918171386013 C 0.0 **** -0.24
33582 H 68.76824349950317 16.123169902750817 76.95362127426387 H 0.0 **** 0.06
33583 H 67.76210081758458 16.143880592504985 78.42274653826888 H 0.0 **** 0.06
33584 H 68.82398766842152 14.75352154888617 78.08920918410792 H 0.0 **** 0.06
33585 H 67.37412296442656 15.024688745694306 77.09280484360156 H 0.0 **** 0.06
33586 C 33.134702809191594 11.504936995711855 106.58252664388971 C 0.0 **** -0.24
33587 H 33.128587991055326 12.524010046967145 106.19402339994056 H 0.0 **** 0.06
33588 H 33.87642466095119 11.425739374600003 107.37833786001224 H 0.0 **** 0.06
33589 H 33.386483309413364 10.811640862669755 105.78035834266853 H 0.0 **** 0.06
33590 H 32.14911877555414 11.261496628368782 106.97833318627195 H 0.0 **** 0.06
33591 C 16.23361095385124 19.029043002471752 109.9980928777855 C 0.0 **** -0.24
33592 H 16.244688980826666 20.029045208769674 109.56643243886457 H 0.0 **** 0.06
33593 H 16.52047640943219 18.30221882316053 109.23844969825788 H 0.0 **** 0.06
33594 H 15.231483070846338 18.80079519931718 110.36088979696329 H 0.0 **** 0.06
33595 H 16.938491342979532 18.98479246798061 110.82884768080297 H 0.0 **** 0.06
33596 C 60.85011601052339 30.63174686393961 111.17013587770164 C 0.0 **** -0.24
33597 H 60.652202652046235 30.068988443930095 110.25768245533104 H 0.0 **** 0.06
33598 H 60.447739784936 31.64063752250064 111.06851849250525 H 0.0 **** 0.06
33599 H 61.92603131970427 30.68453667068303 111.33742444379536 H 0.0 **** 0.06
33600 H 60.374426847039324 30.133829244506614 112.01409188020565 H 0.0 **** 0.06
33601 C 17.518153359640195 12.364543731471656 62.90278166548804 C 0.0 **** -0.24
33602 H 17.715631148711964 13.307126640412832 62.39308479631867 H 0.0 **** 0.06
33603 H 16.81765214685194 12.533234720866972 63.72080084529484 H 0.0 **** 0.06
33604 H 18.451574005509144 11.964499078221195 63.300179708120346 H 0.0 **** 0.06
33605 H 17.089485786608066 11.65331395304861 62.19696918304029 H 0.0 **** 0.06
33606 C 14.377517859009966 113.51840626896613 79.2604164404517 C 0.0 **** -0.24
33607 H 13.360923071255794 113.12477449626655 79.29315953813455 H 0.0 **** 0.06
33608 H 15.040349265180875 112.77395965513283 78.81681655254278 H 0.0 **** 0.06
33609 H 14.711506925074445 113.74585369316071 80.27168584724944 H 0.0 **** 0.06
33610 H 14.395662678498905 114.42664361090138 78.65763398490765 H 0.0 **** 0.06
33611 C 43.430681337592034 26.1771932740373 115.91921190078473 C 0.0 **** -0.24
33612 H 43.086703884298174 27.096821595764396 115.4462116817108 H 0.0 **** 0.06
33613 H 43.74780063043943 26.390783659491746 116.94032526886741 H 0.0 **** 0.06
33614 H 44.26935129791076 25.770154734273845 115.3548554019505 H 0.0 **** 0.06
33615 H 42.61678781418482 25.451079331377272 115.93626908822024 H 0.0 **** 0.06
33616 C 56.041043548161184 99.21956377417945 75.76586997595686 C 0.0 **** -0.24
33617 H 55.71014237020228 100.22013411598124 75.48449928505991 H 0.0 **** 0.06
33618 H 56.79049738987595 99.29331497894924 76.55431065369956 H 0.0 **** 0.06
33619 H 56.47334083160166 98.72293911451271 74.89731602838893 H 0.0 **** 0.06
33620 H 55.18883082939587 98.64431658887457 76.12697673630615 H 0.0 **** 0.06
33621 C 59.88431577496177 70.36560376645659 30.820254560390595 C 0.0 **** -0.24
33622 H 60.598330339840224 71.14651103123111 30.559290982651987 H 0.0 **** 0.06
33623 H 60.06651341839025 70.03419097736617 31.84261973802188 H 0.0 **** 0.06
33624 H 60.0018129988814 69.52326342455436 30.137918013036597 H 0.0 **** 0.06
33625 H 58.870172144277866 70.75892385785568 30.739929865729266 H 0.0 **** 0.06
33626 C 54.264931357637316 43.338973577746664 68.77217872466835 C 0.0 **** -0.24
33627 H 54.03363965978604 44.13175069777794 68.05996273219094 H 0.0 **** 0.06
33628 H 54.179983225081216 42.37145352461605 68.27764893446215 H 0.0 **** 0.06
33629 H 53.56346148127585 43.384778221464146 69.60551715649811 H 0.0 **** 0.06
33630 H 55.28068488467229 43.470866020691936 69.14438309993139 H 0.0 **** 0.06
33631 C 5.151177480725721 32.15952444391534 107.77497226773852 C 0.0 **** -0.24
33632 H 6.148087164262307 31.90893201205221 108.13729597620548 H 0.0 **** 0.06
33633 H 5.216980534605881 32.51223899495503 106.74574325249753 H 0.0 **** 0.06
33634 H 4.722859435742976 32.942169450603906 108.40224931201405 H 0.0 **** 0.06
33635 H 4.516631713032808 31.273944794601924 107.81516359325411 H 0.0 **** 0.06
33636 C 43.41147995964346 70.22034345784951 59.27630949780427 C 0.0 **** -0.24
33637 H 44.32610611782883 70.49296120560234 59.80310123581345 H 0.0 **** 0.06
33638 H 43.54171961545404 70.39551355992646 58.20796119989843 H 0.0 **** 0.06
33639 H 42.584390578844506 70.82683693997876 59.64728100682289 H 0.0 **** 0.06
33640 H 43.193849324287214 69.16588676580173 59.448611571098674 H 0.0 **** 0.06
33641 C 113.74933886488645 9.282305379211493 58.81254901144746 C 0.0 **** -0.24
33642 H 113.31886937018967 8.325191733271197 59.10614638414242 H 0.0 **** 0.06
33643 H 113.22968697918978 9.658223580071137 57.93101261972913 H 0.0 **** 0.06
33644 H 114.80638652102888 9.149863179240867 58.58156786559064 H 0.0 **** 0.06
33645 H 113.64248775207906 9.994618006161318 59.630356139170715 H 0.0 **** 0.06
33646 C 70.94935454366944 97.77715282934591 67.71598249435556 C 0.0 **** -0.24
33647 H 71.17448837958017 98.8107526277496 67.45385818050079 H 0.0 **** 0.06
33648 H 70.3420852460244 97.75580788554754 68.62143454457214 H 0.0 **** 0.06
33649 H 71.87912891393984 97.23413926447267 67.88858004331422 H 0.0 **** 0.06
33650 H 70.40033896143399 97.30658794981431 66.89889395075821 H 0.0 **** 0.06
33651 C 64.22948581323166 7.33444788510576 70.18708134822236 C 0.0 **** -0.24
33652 H 63.3013418492932 7.8829799395268765 70.03061007795407 H 0.0 **** 0.06
33653 H 64.36586373763771 7.146451466062956 71.25193878447104 H 0.0 **** 0.06
33654 H 65.0666077539087 7.922922022665432 69.81194671421233 H 0.0 **** 0.06
33655 H 64.1845548368222 6.384742633898071 69.65267401996996 H 0.0 **** 0.06
33656 C 86.9090842778229 65.12984562769398 15.740365800391686 C 0.0 **** -0.24
33657 H 85.9112809848159 65.53813045583686 15.579679602083075 H 0.0 **** 0.06
33658 H 87.0840588414062 64.31395235903011 15.038114335434585 H 0.0 **** 0.06
33659 H 86.98763449596913 64.75461770655048 16.76046226856488 H 0.0 **** 0.06
33660 H 87.65095390737667 65.91174373281362 15.581684666365447 H 0.0 **** 0.06
33661 C 63.59062346679201 54.81486783700876 91.36840339183394 C 0.0 **** -0.24
33662 H 63.46704592588449 53.75793008894871 91.60445455951168 H 0.0 **** 0.06
33663 H 62.650103375010616 55.21285820771618 90.98541425729081 H 0.0 **** 0.06
33664 H 64.36848697384113 54.9303355895226 90.6140656102217 H 0.0 **** 0.06
33665 H 63.87516009930141 55.3568751687792 92.27065444461937 H 0.0 **** 0.06
33666 C 12.939570384357268 74.37065513997365 78.3250476004915 C 0.0 **** -0.24
33667 H 13.99915909347223 74.4810727916113 78.55750130445372 H 0.0 **** 0.06
33668 H 12.763250074922809 73.38488483560619 77.89354432767604 H 0.0 **** 0.06
33669 H 12.642679039669957 75.13875074486555 77.61060609694943 H 0.0 **** 0.06
33670 H 12.354795328760815 74.47855865938055 79.23866455614075 H 0.0 **** 0.06
33671 C 40.71994452927453 104.67702727697124 111.36863462928218 C 0.0 **** -0.24
33672 H 39.6501904662893 104.87751641755764 111.41679315982698 H 0.0 **** 0.06
33673 H 41.14782457321576 104.75061771748926 112.36890216064229 H 0.0 **** 0.06
33674 H 41.19680427373197 105.40743465001259 110.71448184924098 H 0.0 **** 0.06
33675 H 40.88436302374845 103.67469486387816 110.97441869860711 H 0.0 **** 0.06
33676 C 7.974632213574807 53.038894784582396 60.65264874663569 C 0.0 **** -0.24
33677 H 8.107645308592282 52.01538043670908 60.303993059821835 H 0.0 **** 0.06
33678 H 8.159198388422197 53.08273839479568 61.72709007319958 H 0.0 **** 0.06
33679 H 6.9551497105355224 53.363956633114384 60.444744457277466 H 0.0 **** 0.06
33680 H 8.677244705501039 53.69322607217191 60.13595903608413 H 0.0 **** 0.06
33681 C 50.01722724146028 64.18350783401468 55.02931715785226 C 0.0 **** -0.24
33682 H 49.640923549728406 64.20211973695632 54.00645054875889 H 0.0 **** 0.06
33683 H 50.442975536650685 63.201941220423805 55.24137948483522 H 0.0 **** 0.06
33684 H 49.1987161864702 64.38289584309246 55.7205819469537 H 0.0 **** 0.06
33685 H 50.786856727976165 64.94612989759003 55.146909616986164 H 0.0 **** 0.06
33686 C 37.59064836538262 55.45680972101296 100.40990788168259 C 0.0 **** -0.24
33687 H 38.246175870964066 55.388521272668335 101.27865606188399 H 0.0 **** 0.06
33688 H 36.84027654271668 54.66733118762187 100.45837201312645 H 0.0 **** 0.06
33689 H 38.18107063306272 55.34320386302927 99.5009011696842 H 0.0 **** 0.06
33690 H 37.096751445626026 56.42911524497264 100.40400548803575 H 0.0 **** 0.06
33691 C 105.40765537254129 25.846611437740904 79.21799493804548 C 0.0 **** -0.24
33692 H 104.69918876781588 25.535166738068682 79.9858381888013 H 0.0 **** 0.06
33693 H 105.12576741988627 26.829709871025273 78.84107636250982 H 0.0 **** 0.06
33694 H 105.39536301210805 25.125707560594847 78.39930783106558 H 0.0 **** 0.06
33695 H 106.40894040066397 25.894000168527057 79.64493229565653 H 0.0 **** 0.06
33696 C 104.35155890813249 79.18978748465366 102.35994091333961 C 0.0 **** -0.24
33697 H 104.79321613103073 79.73486100074399 103.19487072643778 H 0.0 **** 0.06
33698 H 103.640748512594 78.45605456861853 102.74083274724183 H 0.0 **** 0.06
33699 H 105.13846189272357 78.67982083407907 101.80450625896637 H 0.0 **** 0.06
33700 H 103.83604974444339 79.88912038066121 101.7016706269566 H 0.0 **** 0.06
33701 C 1.6157065150754875 83.64074059889379 46.74668257931154 C 0.0 **** -0.24
33702 H 2.2262230949166337 83.10471203423094 47.47234487277581 H 0.0 **** 0.06
33703 H 0.6228727645114418 83.1919645303083 46.70549774422216 H 0.0 **** 0.06
33704 H 2.0833428745787046 83.58125532103602 45.7639533719026 H 0.0 **** 0.06
33705 H 1.52981493384533 84.68544998702637 47.045638930330426 H 0.0 **** 0.06
33706 C 7.1750107976161495 18.424456183363723 79.0667469662346 C 0.0 **** -0.24
33707 H 6.629390726473055 19.075855859464482 78.38375854169223 H 0.0 **** 0.06
33708 H 7.890484696498564 19.0156868446571 79.63826544337536 H 0.0 **** 0.06
33709 H 7.706315396928403 17.66351969999027 78.49569003703559 H 0.0 **** 0.06
33710 H 6.4720915906514875 17.943877446505763 79.74798678568402 H 0.0 **** 0.06
33711 C 115.95906302630473 26.08475220876184 94.12656077269372 C 0.0 **** -0.24
33712 H 115.93615283271924 27.16587402575925 93.98600913359243 H 0.0 **** 0.06
33713 H 116.99118981459841 25.75496795527107 94.24303641702105 H 0.0 **** 0.06
33714 H 115.51588973044075 25.596498353039465 93.25858982198025 H 0.0 **** 0.06
33715 H 115.39025213841245 25.823159769528928 95.01966469855827 H 0.0 **** 0.06
33716 C 21.227229975812122 57.789055818327206 45.55166784792803 C 0.0 **** -0.24
33717 H 20.502129747139747 57.536285315045355 44.77841584106932 H 0.0 **** 0.06
33718 H 22.108958376250257 58.23314186478472 45.091375022629705 H 0.0 **** 0.06
33719 H 21.513528532888813 56.885340981798755 46.08975018492683 H 0.0 **** 0.06
33720 H 20.782573834679198 58.50002147807685 46.24810716247623 H 0.0 **** 0.06
33721 C 103.14179527078556 54.14580160089048 30.60778140175701 C 0.0 **** -0.24
33722 H 102.60645415018053 53.19882181233711 30.666082791133917 H 0.0 **** 0.06
33723 H 104.14083269778067 54.024005090954695 31.02696611676253 H 0.0 **** 0.06
33724 H 102.60043976106522 54.905002165591 31.173406502208884 H 0.0 **** 0.06
33725 H 103.21909792628898 54.455028858097236 29.56599365973618 H 0.0 **** 0.06
33726 C 36.66216788368848 3.557494033400019 45.59863089386846 C 0.0 **** -0.24
33727 H 37.5335877866319 2.903215274451412 45.56064840211735 H 0.0 **** 0.06
33728 H 35.7831750096619 2.9758532702132783 45.874212904019004 H 0.0 **** 0.06
33729 H 36.505960137645474 4.011650994794721 44.61984307540047 H 0.0 **** 0.06
33730 H 36.82804845868375 4.339641798799107 46.33915398378221 H 0.0 **** 0.06
33731 C 84.26438552214753 109.03042417275037 46.72306355201908 C 0.0 **** -0.24
33732 H 83.37522147379767 108.92770520527955 47.34617361547505 H 0.0 **** 0.06
33733 H 84.05616221179676 108.63815804856932 45.72769563038555 H 0.0 **** 0.06
33734 H 85.0876828337206 108.47238876439732 47.16885719983764 H 0.0 **** 0.06
33735 H 84.53534736695914 110.08388214715225 46.64968121244384 H 0.0 **** 0.06
33736 C 115.83691118375054 76.50530121561405 52.09803616246984 C 0.0 **** -0.24
33737 H 115.6218703177193 76.22688126540203 53.1295000241212 H 0.0 **** 0.06
33738 H 116.44095301097406 77.41341401876315 52.08543991769591 H 0.0 **** 0.06
33739 H 114.9007626816234 76.68385381507528 51.56701070100729 H 0.0 **** 0.06
33740 H 116.38298404847535 75.69896473619355 51.60974547225791 H 0.0 **** 0.06
33741 C 23.980508773615163 54.24084386071132 56.8636860860588 C 0.0 **** -0.24
33742 H 23.50349915425576 53.34898906465904 57.267512397887735 H 0.0 **** 0.06
33743 H 23.42915599362184 54.58286368354186 55.987922129249604 H 0.0 **** 0.06
33744 H 25.006329165893725 54.00673479942722 56.57980158065157 H 0.0 **** 0.06
33745 H 23.983076598358018 55.025436164670424 57.62076489720523 H 0.0 **** 0.06
33746 C 18.32348925305338 17.908210114216843 52.88079396277409 C 0.0 **** -0.24
33747 H 18.95126802754828 18.19958763414445 52.0395354790905 H 0.0 **** 0.06
33748 H 17.94774739388191 18.801455140760226 53.380090826766946 H 0.0 **** 0.06
33749 H 18.910565746217856 17.316981569460296 53.58478619548985 H 0.0 **** 0.06
33750 H 17.48425817553084 17.313411178819678 52.51887484613447 H 0.0 **** 0.06
33751 C 7.894154262314387 100.9609893384571 71.88594884308719 C 0.0 **** -0.24
33752 H 8.855048730708653 101.00526413751894 71.37269689415166 H 0.0 **** 0.06
33753 H 7.872971463436635 100.08982338485569 72.54054117583843 H 0.0 **** 0.06
33754 H 7.093451709783958 100.88315692031148 71.15031067355847 H 0.0 **** 0.06
33755 H 7.756007532415232 101.8647574511937 72.47871574115015 H 0.0 **** 0.06
33756 C 38.457304988658635 43.63560221045793 69.09736017099729 C 0.0 **** -0.24
33757 H 39.183646171419404 44.44764612435438 69.08202777749719 H 0.0 **** 0.06
33758 H 37.61342112979782 43.914637472065294 69.72917769542121 H 0.0 **** 0.06
33759 H 38.92700677145904 42.73535655651318 69.4943450515236 H 0.0 **** 0.06
33760 H 38.104632183253756 43.44403862222316 68.0834394109032 H 0.0 **** 0.06
33761 C 31.624603721680202 91.6231837278971 66.40684028072505 C 0.0 **** -0.24
33762 H 31.568369069435505 91.22853967674146 65.3920458495486 H 0.0 **** 0.06
33763 H 32.17407279568168 90.92441762039968 67.03853933461596 H 0.0 **** 0.06
33764 H 30.616888280722947 91.755009631662 66.80142679011402 H 0.0 **** 0.06
33765 H 32.139028959366414 92.58442573497652 66.39441116519401 H 0.0 **** 0.06
33766 C 10.846416928627775 71.398359927726 11.41131906493598 C 0.0 **** -0.24
33767 H 9.904387926679703 71.90336192925494 11.624261040776503 H 0.0 **** 0.06
33768 H 10.651777400422588 70.49882349327098 10.826430457643994 H 0.0 **** 0.06
33769 H 11.332375009754927 71.12495703999025 12.348065341573033 H 0.0 **** 0.06
33770 H 11.496453050678866 72.06659556684522 10.845843884940507 H 0.0 **** 0.06
33771 C 42.54325976178397 91.17503766490725 68.07996271355941 C 0.0 **** -0.24
33772 H 42.787885224671015 92.1518712107056 67.66038591801438 H 0.0 **** 0.06
33773 H 42.30076994073923 91.28450139686126 69.13741549967833 H 0.0 **** 0.06
33774 H 43.39864264843385 90.50848419264119 67.96981031289206 H 0.0 **** 0.06
33775 H 41.6864184071937 90.75807846511432 67.55135146995394 H 0.0 **** 0.06
33776 C 19.05919164770802 59.903816122491605 10.283496863874902 C 0.0 **** -0.24
33777 H 19.897149909329766 60.3467412357121 9.746213699355451 H 0.0 **** 0.06
33778 H 18.986335475031016 58.84487880097339 10.033393371998883 H 0.0 **** 0.06
33779 H 18.137455743131113 60.40950574837291 9.999060964838293 H 0.0 **** 0.06
33780 H 19.217876045316576 60.013767217297755 11.356606842630129 H 0.0 **** 0.06
33781 C 44.20747081539838 77.16650243587645 106.86600787787725 C 0.0 **** -0.24
33782 H 43.24574880425547 76.6588088261903 106.94243405462151 H 0.0 **** 0.06
33783 H 44.892534956829195 76.76174354357397 107.611207413268 H 0.0 **** 0.06
33784 H 44.06919525591866 78.23377018218679 107.04087477217598 H 0.0 **** 0.06
33785 H 44.62082234993238 77.01237539454115 105.86935983627717 H 0.0 **** 0.06
33786 C 85.01497642164617 25.521379555575322 73.8547950258316 C 0.0 **** -0.24
33787 H 84.47247715681442 26.096498578083093 73.10460397786 H 0.0 **** 0.06
33788 H 84.30396099247167 25.04701598118904 74.53262342230616 H 0.0 **** 0.06
33789 H 85.66771177031731 26.186489147554255 74.41935477106 H 0.0 **** 0.06
33790 H 85.61359956788306 24.755381077531005 73.36202061934847 H 0.0 **** 0.06
33791 C 10.493877070642448 81.43400453631594 21.480285296912854 C 0.0 **** -0.24
33792 H 9.771592322829072 81.95218124690615 20.850423775010142 H 0.0 **** 0.06
33793 H 11.454961763718654 81.94597168239133 21.428701968093776 H 0.0 **** 0.06
33794 H 10.60878414716801 80.4077242575897 21.131116091086483 H 0.0 **** 0.06
33795 H 10.139459002103209 81.42943779813587 22.51089333321835 H 0.0 **** 0.06
33796 C 1.4217470755907868 85.23136054197818 77.46648670741524 C 0.0 **** -0.24
33797 H 0.9646311900889373 85.16130584408785 76.48026143956338 H 0.0 **** 0.06
33798 H 0.6433577699768307 85.21476029568635 78.23034570985203 H 0.0 **** 0.06
33799 H 1.9840471704857947 86.161448059762 77.54123096477542 H 0.0 **** 0.06
33800 H 2.094641424179983 84.38641978707847 77.61601375441467 H 0.0 **** 0.06
33801 C 15.03462617884773 111.32622959820961 4.140829385046189 C 0.0 **** -0.24
33802 H 14.002576995649292 111.67311107086024 4.190252867523597 H 0.0 **** 0.06
33803 H 15.709045015735484 112.17973420216596 4.212181372663437 H 0.0 **** 0.06
33804 H 15.198682821336917 110.81105591328782 3.1946357322554064 H 0.0 **** 0.06
33805 H 15.226346282303865 110.64063955793804 4.966897013221001 H 0.0 **** 0.06
33806 C 106.40643174838456 73.56395115883703 29.48473338203638 C 0.0 **** -0.24
33807 H 106.85189559064196 72.99908214275064 30.30364969479365 H 0.0 **** 0.06
33808 H 105.3241652949273 73.43934371374914 29.503765477385514 H 0.0 **** 0.06
33809 H 106.7982296670867 73.1965813432306 28.535953214379788 H 0.0 **** 0.06
33810 H 106.65351935211845 74.62011156908125 29.59512769658943 H 0.0 **** 0.06
33811 C 82.97968522684761 100.07832538236897 79.03556634655814 C 0.0 **** -0.24
33812 H 84.03077374624542 99.83729757851535 79.1971012904034 H 0.0 **** 0.06
33813 H 82.36368969703273 99.48226346349139 79.70829631850086 H 0.0 **** 0.06
33814 H 82.71121958071942 99.85552424863317 78.00294114220605 H 0.0 **** 0.06
33815 H 82.81497277219324 101.13722964869004 79.23276036368492 H 0.0 **** 0.06
33816 C 106.38357730841395 77.17352947004198 2.9868460785341284 C 0.0 **** -0.24
33817 H 107.16377940464926 77.39291281086608 2.258935010751202 H 0.0 **** 0.06
33818 H 106.32183067950405 77.98716885507832 3.710433216017023 H 0.0 **** 0.06
33819 H 106.62046601427508 76.24391325002901 3.5038058039736484 H 0.0 **** 0.06
33820 H 105.42725520621761 77.07065326602486 2.473337041777995 H 0.0 **** 0.06
33821 C 91.40286156109701 34.095278358221734 91.4857303272347 C 0.0 **** -0.24
33822 H 92.35805858624255 33.571349368232546 91.5162591062394 H 0.0 **** 0.06
33823 H 91.12640404434083 34.28651894766902 90.44805053987864 H 0.0 **** 0.06
33824 H 91.49052536573768 35.04223381172521 92.01907021486804 H 0.0 **** 0.06
33825 H 90.63646649211461 33.48153006256345 91.95868653219915 H 0.0 **** 0.06
33826 C 105.49991220779242 109.9036727542952 40.3161316573254 C 0.0 **** -0.24
33827 H 104.43090246957601 109.80365518940073 40.50201222960189 H 0.0 **** 0.06
33828 H 105.91418218882873 108.93204479436312 40.04518237586737 H 0.0 **** 0.06
33829 H 105.99228672512976 110.27005975540756 41.21682464318374 H 0.0 **** 0.06
33830 H 105.6624257743268 110.60898155286702 39.501495069709506 H 0.0 **** 0.06
33831 C 116.62473617603719 43.80504536714648 41.69816015400909 C 0.0 **** -0.24
33832 H 116.76272070575408 43.4477218476589 42.71868459876043 H 0.0 **** 0.06
33833 H 116.56448556607026 42.954053650470996 41.020563769165165 H 0.0 **** 0.06
33834 H 117.46754966211512 44.436515750789 41.41703998674484 H 0.0 **** 0.06
33835 H 115.70278929432092 44.38366372539991 41.63805420409494 H 0.0 **** 0.06
33836 C 75.14738596669343 25.41320915945178 60.66334777988186 C 0.0 **** -0.24
33837 H 74.65527667298306 26.367634756614393 60.852012090596304 H 0.0 **** 0.06
33838 H 75.23978039363277 24.86129985759058 61.5985196002153 H 0.0 **** 0.06
33839 H 76.13915292203589 25.591957003929053 60.2472978893112 H 0.0 **** 0.06
33840 H 74.5549979089894 24.83306244199275 59.95476240975171 H 0.0 **** 0.06
33841 C 9.569367314970918 41.85623533084882 74.90532430467653 C 0.0 **** -0.24
33842 H 10.181704183065676 41.75638091651854 74.00968902041672 H 0.0 **** 0.06
33843 H 8.571211180203022 42.194615282213846 74.62734893973294 H 0.0 **** 0.06
33844 H 10.026011333228325 42.582901216741305 75.57789173122444 H 0.0 **** 0.06
33845 H 9.499647777405414 40.89085720952397 75.4072299435781 H 0.0 **** 0.06
33846 C 22.679298215284735 100.60512513132252 100.7149096823839 C 0.0 **** -0.24
33847 H 21.89586011386995 99.86327901821807 100.56045566614239 H 0.0 **** 0.06
33848 H 23.249546705967976 100.35001622852292 101.60819243636831 H 0.0 **** 0.06
33849 H 22.22804576961087 101.58919380863495 100.83889352260775 H 0.0 **** 0.06
33850 H 23.343478360066296 100.61610223267323 99.8505849656143 H 0.0 **** 0.06
33851 C 106.0251202295355 69.37825770814288 39.45037865108213 C 0.0 **** -0.24
33852 H 106.87570873096104 68.71049681823183 39.31843743073529 H 0.0 **** 0.06
33853 H 106.25150110731116 70.10403967165428 40.23190167989972 H 0.0 **** 0.06
33854 H 105.14808250448354 68.79757286235161 39.73704732928135 H 0.0 **** 0.06
33855 H 105.82437281367973 69.90053811682657 38.515607265290754 H 0.0 **** 0.06
33856 C 112.20526351071328 57.400709365971466 32.47680060692355 C 0.0 **** -0.24
33857 H 111.47233561507858 56.72185757280283 32.91388064957761 H 0.0 **** 0.06
33858 H 112.6123228967515 58.04511056908132 33.25579784223905 H 0.0 **** 0.06
33859 H 111.7234753054289 58.01295198237108 31.71401812838728 H 0.0 **** 0.06
33860 H 113.01108082155577 56.82271482721262 32.02511077783407 H 0.0 **** 0.06
33861 C 90.62991920245582 36.405259734450915 102.61016699961635 C 0.0 **** -0.24
33862 H 90.94684217389033 35.540000876029765 102.02892536590255 H 0.0 **** 0.06
33863 H 90.2616741580706 37.18007737563924 101.93777859059253 H 0.0 **** 0.06
33864 H 91.47634013069109 36.79069282276159 103.1796132033223 H 0.0 **** 0.06
33865 H 89.83614575196282 36.111168024422554 103.29688727998857 H 0.0 **** 0.06
33866 C 71.19826881256816 65.31989485927292 81.0643231206677 C 0.0 **** -0.24
33867 H 72.09962996967957 64.70933474167498 81.00999653942534 H 0.0 **** 0.06
33868 H 71.10303392144982 65.73987466573607 82.06506843077432 H 0.0 **** 0.06
33869 H 70.32826522451751 64.70179345476029 80.84442239328195 H 0.0 **** 0.06
33870 H 71.2630365747433 66.12846088342684 80.33552606671552 H 0.0 **** 0.06
33871 C 71.22828674482577 95.31346223050579 5.551522691946019 C 0.0 **** -0.24
33872 H 70.20887386810784 94.92696316936005 5.554141116505319 H 0.0 **** 0.06
33873 H 71.92702165809695 94.49325082169085 5.715173879415108 H 0.0 **** 0.06
33874 H 71.33915427288116 96.04957799967167 6.348141150803457 H 0.0 **** 0.06
33875 H 71.43611627501872 95.78259430822379 4.5903484678383 H 0.0 **** 0.06
33876 C 80.19336586985196 63.57646363753565 71.00097737713281 C 0.0 **** -0.24
33877 H 80.76118529122661 64.3467068186446 70.47960181338365 H 0.0 **** 0.06
33878 H 79.17917432764665 63.540976633750574 70.60316567130204 H 0.0 **** 0.06
33879 H 80.1583693090366 63.8102141203905 72.06611729770052 H 0.0 **** 0.06
33880 H 80.67542261198034 62.60996030524635 70.85714929023911 H 0.0 **** 0.06
33881 C 9.880169638743666 114.1796775778842 67.89618977149883 C 0.0 **** -0.24
33882 H 9.935804956300217 113.28799353345988 67.27037243179814 H 0.0 **** 0.06
33883 H 10.57924004884498 114.92924698754288 67.52285703352382 H 0.0 **** 0.06
33884 H 10.13952463507529 113.91972383076609 68.92196652105832 H 0.0 **** 0.06
33885 H 8.866850588031255 114.58121541302049 67.86752135253303 H 0.0 **** 0.06
33886 C 60.17232562211652 54.88770930369603 53.36015778451292 C 0.0 **** -0.24
33887 H 60.85706013895563 54.09031608034701 53.64812762026776 H 0.0 **** 0.06
33888 H 59.15001226405755 54.592574607822854 53.600474208313074 H 0.0 **** 0.06
33889 H 60.25532591862566 55.068835728840696 52.28912834581445 H 0.0 **** 0.06
33890 H 60.425464222079285 55.797848668364196 53.90405590033282 H 0.0 **** 0.06
33891 C 76.6432870816711 18.330000503609114 46.92604413520013 C 0.0 **** -0.24
33892 H 77.13457445844773 17.360233458910415 46.99906811804408 H 0.0 **** 0.06
33893 H 75.83008959307497 18.38079734182432 47.65070719038465 H 0.0 **** 0.06
33894 H 76.24383023797586 18.460159423709968 45.921086049121755 H 0.0 **** 0.06
33895 H 77.36598800158302 19.119734348159426 47.13583905881433 H 0.0 **** 0.06
33896 C 56.680917822714214 76.7025065851251 102.7790110722606 C 0.0 **** -0.24
33897 H 57.114997049423714 77.41610407789034 102.07819736790597 H 0.0 **** 0.06
33898 H 55.6760539221519 77.02492672664769 103.04953036621822 H 0.0 **** 0.06
33899 H 57.300820193918106 76.6501033359807 103.67430875617558 H 0.0 **** 0.06
33900 H 56.632715789353476 75.71840279835467 102.31178915190205 H 0.0 **** 0.06
33901 C 47.879738951101515 64.92520027866945 13.339069221951263 C 0.0 **** -0.24
33902 H 47.33258822256636 65.1696596166783 14.249487077311478 H 0.0 **** 0.06
33903 H 47.23298938818725 64.36087116917511 12.667562260372652 H 0.0 **** 0.06
33904 H 48.75396021857919 64.32504731157536 13.591742069201377 H 0.0 **** 0.06
33905 H 48.19923519532899 65.84501444971264 12.84970435031591 H 0.0 **** 0.06
33906 C 35.60612609616436 89.36794545036693 3.090442279953166 C 0.0 **** -0.24
33907 H 35.411343322550465 88.81631805303141 2.170965893208404 H 0.0 **** 0.06
33908 H 36.6497357212225 89.68231442474124 3.1109868485500556 H 0.0 **** 0.06
33909 H 35.40353753089556 88.72600430366714 3.9487612787231825 H 0.0 **** 0.06
33910 H 34.96099294347823 90.24442676806828 3.1322342374719625 H 0.0 **** 0.06
33911 C 77.45488513680331 82.57295760223434 73.97561630490489 C 0.0 **** -0.24
33912 H 77.74121212481953 83.47729674735584 74.51301612005858 H 0.0 **** 0.06
33913 H 77.88609681839858 81.70312766332779 74.47209529003493 H 0.0 **** 0.06
33914 H 77.823036113623 82.6279979714607 72.95126413531904 H 0.0 **** 0.06
33915 H 76.36852281636834 82.48432695106348 73.96692824678587 H 0.0 **** 0.06
33916 C 61.006464471777285 79.0521582338124 54.24875093529073 C 0.0 **** -0.24
33917 H 61.0333408274873 79.20480512620568 55.32752595087186 H 0.0 **** 0.06
33918 H 61.83553300210625 79.58601506716556 53.78432417494264 H 0.0 **** 0.06
33919 H 60.063685428322096 79.42791948534804 53.851136645173824 H 0.0 **** 0.06
33920 H 61.09289676338762 77.98698609849117 54.031394508562244 H 0.0 **** 0.06
33921 C 62.9472938626904 85.54464523474633 53.250199211096174 C 0.0 **** -0.24
33922 H 63.246908831635096 84.61604144938323 53.735009264771094 H 0.0 **** 0.06
33923 H 61.95900836300871 85.83729444015904 53.60552048562832 H 0.0 **** 0.06
33924 H 62.91592279413874 85.39753598268899 52.170902377633155 H 0.0 **** 0.06
33925 H 63.66678067139503 86.32788280805545 53.48855103372483 H 0.0 **** 0.06
33926 C 23.410159488815914 70.03987832967073 65.62524488421266 C 0.0 **** -0.24
33927 H 24.387164432520116 69.7821188826789 65.21442683643875 H 0.0 **** 0.06
33928 H 23.54124851918414 70.5673187045505 66.56980629124763 H 0.0 **** 0.06
33929 H 22.83555377216546 69.12958163662756 65.79303672051267 H 0.0 **** 0.06
33930 H 22.878504721630723 70.68055751225734 64.92060565153349 H 0.0 **** 0.06
33931 C 84.48467029371733 90.50724689417584 13.334883759056396 C 0.0 **** -0.24
33932 H 84.84601452847429 90.98703388409047 14.245081989559196 H 0.0 **** 0.06
33933 H 84.73034909250981 91.12989003896445 12.47444408972558 H 0.0 **** 0.06
33934 H 83.40389099855821 90.38163123469852 13.395988236633514 H 0.0 **** 0.06
33935 H 84.9582438473818 89.53176451824362 13.226702632261379 H 0.0 **** 0.06
33936 C 53.873132212740245 59.64882657254384 14.276118737906557 C 0.0 **** -0.24
33937 H 52.854426394661935 59.761911944969256 14.646360675759482 H 0.0 **** 0.06
33938 H 54.05283405320858 60.372846926642524 13.480806978996355 H 0.0 **** 0.06
33939 H 54.007169055186445 58.639620136861254 13.886232239111507 H 0.0 **** 0.06
33940 H 54.57687765946244 59.82044407273315 15.090551509723511 H 0.0 **** 0.06
33941 C 12.455536414002665 26.76292710288726 115.6054901729531 C 0.0 **** -0.24
33942 H 12.849235209510056 25.773348977823417 115.3752070620797 H 0.0 **** 0.06
33943 H 11.572956124445511 26.953854309731497 114.99373786293282 H 0.0 **** 0.06
33944 H 13.215071262840041 27.514839317335856 115.39279140517691 H 0.0 **** 0.06
33945 H 12.182689894885158 26.809353207231425 116.6599200557435 H 0.0 **** 0.06
33946 C 24.23279265588627 105.96834296614873 50.38660999000132 C 0.0 **** -0.24
33947 H 24.47872581991652 105.03434448139663 49.87936074875404 H 0.0 **** 0.06
33948 H 23.168915979302255 105.98207990331844 50.62454844817876 H 0.0 **** 0.06
33949 H 24.47024190122289 106.80841951630691 49.734254882413666 H 0.0 **** 0.06
33950 H 24.812848781408036 106.04567647613581 51.3058930537768 H 0.0 **** 0.06
33951 C 115.37857757160916 55.10884516724383 88.5835240206313 C 0.0 **** -0.24
33952 H 115.02615757056114 55.431734064242846 87.6040686361493 H 0.0 **** 0.06
33953 H 114.55243505126064 55.1366351287885 89.2938944931386 H 0.0 **** 0.06
33954 H 116.17153667979147 55.77720793800893 88.92205930768108 H 0.0 **** 0.06
33955 H 115.76531887581572 54.092389976113736 88.51394713058903 H 0.0 **** 0.06
33956 C 50.51678914317537 30.12184695536365 13.169315083321607 C 0.0 **** -0.24
33957 H 51.56747220967253 29.855706320324998 13.053758939436165 H 0.0 **** 0.06
33958 H 49.992112564855915 29.31304439368853 13.6777202949838 H 0.0 **** 0.06
33959 H 50.07297873693406 30.282576767564535 12.186893479611797 H 0.0 **** 0.06
33960 H 50.43558255260547 31.034647722542104 13.758727640345342 H 0.0 **** 0.06
33961 C 97.62428263756217 14.579746429904532 37.833285429436415 C 0.0 **** -0.24
33962 H 97.9704871002454 13.744663124984157 38.442077096939045 H 0.0 **** 0.06
33963 H 97.78848365159041 15.514255776166834 38.37146140301212 H 0.0 **** 0.06
33964 H 96.56080807035161 14.461910568076746 37.62581854429223 H 0.0 **** 0.06
33965 H 98.17768130802989 14.599513058998127 36.89400953689605 H 0.0 **** 0.06
33966 C 27.559041130260255 76.89791261448696 97.9210802907134 C 0.0 **** -0.24
33967 H 28.012859313333905 77.79674811005384 97.50477424993261 H 0.0 **** 0.06
33968 H 28.271161324818365 76.4046713347351 98.58382905371667 H 0.0 **** 0.06
33969 H 27.286158873012567 76.2201539697526 97.11191004531037 H 0.0 **** 0.06
33970 H 26.66632850651368 77.16956354816267 98.48459419213916 H 0.0 **** 0.06
33971 C 47.16494671840212 99.98684870159718 51.13215677859362 C 0.0 **** -0.24
33972 H 48.24193772090834 100.0261967924331 51.29414767377241 H 0.0 **** 0.06
33973 H 46.75528252581461 100.99716170231076 51.16483618430539 H 0.0 **** 0.06
33974 H 46.70236397845335 99.38180915583678 51.91303796186218 H 0.0 **** 0.06
33975 H 46.95948415426 99.54240406283489 50.15871545089267 H 0.0 **** 0.06
33976 C 102.44730556141886 113.55301248131173 60.799668733737626 C 0.0 **** -0.24
33977 H 101.66534876944706 114.30785607311134 60.71082756763254 H 0.0 **** 0.06
33978 H 102.55854807039145 113.0318864509857 59.848775084313324 H 0.0 **** 0.06
33979 H 102.1758708581942 112.8388731433467 61.5768161751564 H 0.0 **** 0.06
33980 H 103.38891331500352 114.03638196305839 61.06239257545342 H 0.0 **** 0.06
33981 C 3.8927220259863446 110.21589799510468 31.06615319680546 C 0.0 **** -0.24
33982 H 3.260960462579531 109.89969027242094 30.235417357949743 H 0.0 **** 0.06
33983 H 3.467776372560298 111.10945088200452 31.524915090460695 H 0.0 **** 0.06
33984 H 4.893864133542801 110.4373434929802 30.69657732360956 H 0.0 **** 0.06
33985 H 3.9460618145541524 109.4168771928008 31.805704139098623 H 0.0 **** 0.06
33986 C 113.45617633425346 28.296685895932995 97.46877361607409 C 0.0 **** -0.24
33987 H 114.04038957028165 29.208953577196525 97.34707911316119 H 0.0 **** 0.06
33988 H 112.51888908972437 28.530740892042644 97.97538782075722 H 0.0 **** 0.06
33989 H 114.02118650106222 27.57933116297778 98.063376527477 H 0.0 **** 0.06
33990 H 113.24191450554017 27.869609982275193 96.48936054384794 H 0.0 **** 0.06
33991 C 4.182350770692921 104.62727062196802 109.83834614539299 C 0.0 **** -0.24
33992 H 3.8692175621040548 104.64923566004632 110.8821090920016 H 0.0 **** 0.06
33993 H 3.362600004157315 104.9701758596234 109.20655608478182 H 0.0 **** 0.06
33994 H 4.453049030903472 103.60750564095952 109.56231014108374 H 0.0 **** 0.06
33995 H 5.043709164784687 105.28043281442353 109.70296977399724 H 0.0 **** 0.06
33996 C 41.812193293438874 0.05710936947406253 6.943057592444179 C 0.0 **** -0.24
33997 H 40.91439235258514 -0.2757050012751847 6.420460102969338 H 0.0 **** 0.06
33998 H 41.56196662885938 0.299636372666896 7.97553141563867 H 0.0 **** 0.06
33999 H 42.211528593793716 0.9420248380728822 6.448288098240521 H 0.0 **** 0.06
34000 H 42.55744480603698 -0.736758813470658 6.925384710344238 H 0.0 **** 0.06
34001 C 69.61942662545127 97.59419906458507 44.182296713201424 C 0.0 **** -0.24
34002 H 68.870606810163 98.0030475366994 43.50385085634852 H 0.0 **** 0.06
34003 H 69.16336555435606 96.82315341907173 44.803433485191675 H 0.0 **** 0.06
34004 H 70.00752376832003 98.39053856995389 44.81822125862908 H 0.0 **** 0.06
34005 H 70.43582166453581 97.16032432442987 43.60501445164121 H 0.0 **** 0.06
34006 C 84.67881093393149 16.18394470354319 16.015654246531625 C 0.0 **** -0.24
34007 H 83.85769965111987 15.626834245126272 16.466939270027865 H 0.0 **** 0.06
34008 H 85.53057325548878 15.519356584825271 15.868553646023088 H 0.0 **** 0.06
34009 H 84.96656466935579 17.003533435657474 16.673529628542582 H 0.0 **** 0.06
34010 H 84.35981792372098 16.584807381984728 15.053280323743223 H 0.0 **** 0.06
34011 C 83.97849245384103 26.342233453384324 36.526346761181486 C 0.0 **** -0.24
34012 H 84.69976543613905 27.00171660111161 36.04540795789288 H 0.0 **** 0.06
34013 H 84.1016183507621 25.32878946699745 36.14476420176317 H 0.0 **** 0.06
34014 H 82.96874997150877 26.691408142485642 36.312884677557236 H 0.0 **** 0.06
34015 H 84.14407387837883 26.347990696589846 37.60433038459175 H 0.0 **** 0.06
34016 C 105.03543296488672 72.81586715679748 8.668041025173011 C 0.0 **** -0.24
34017 H 104.06663596623449 72.94751123400687 9.149580388854659 H 0.0 **** 0.06
34018 H 105.71474108655434 73.60259589312366 8.996719219792226 H 0.0 **** 0.06
34019 H 104.91319755093272 72.8686578655502 7.585841110488602 H 0.0 **** 0.06
34020 H 105.44716948271335 71.84333414802128 8.939670573729273 H 0.0 **** 0.06
34021 C 57.709631830936054 29.235993067173162 57.98531711529273 C 0.0 **** -0.24
34022 H 57.91100538498754 30.290804202174208 58.175664698367854 H 0.0 **** 0.06
34023 H 58.652388534625054 28.692281752640532 57.92376408862202 H 0.0 **** 0.06
34024 H 57.16837961788328 29.13357180390595 57.045273586893046 H 0.0 **** 0.06
34025 H 57.108293773433424 28.828884003468062 58.79764566032165 H 0.0 **** 0.06
34026 C 90.40482371188381 55.793206394636876 61.450789211585345 C 0.0 **** -0.24
34027 H 90.32935587989454 54.861117823107776 62.01156235260561 H 0.0 **** 0.06
34028 H 91.4336089277918 55.9316898390798 61.11569313164691 H 0.0 **** 0.06
34029 H 90.11487280225953 56.62683794524424 62.089814899972794 H 0.0 **** 0.06
34030 H 89.74319532763207 55.75146596795715 60.585882539395044 H 0.0 **** 0.06
34031 C 5.7226834546544865 57.51802077686529 112.82565457273026 C 0.0 **** -0.24
34032 H 6.799203044911678 57.605826324876794 112.67609263459565 H 0.0 **** 0.06
34033 H 5.2120071362786575 57.63299762576286 111.8694725824902 H 0.0 **** 0.06
34034 H 5.387498836432172 58.293687110134464 113.51292808073049 H 0.0 **** 0.06
34035 H 5.493553993041161 56.537006926093575 113.24441178654297 H 0.0 **** 0.06
34036 C 68.16168009148168 63.258036187351706 55.342939673378936 C 0.0 **** -0.24
34037 H 68.70672128411385 63.58346969054986 54.45723314133723 H 0.0 **** 0.06
34038 H 67.11338535532914 63.101522745873126 55.08829155647787 H 0.0 **** 0.06
34039 H 68.23861532488942 64.02148657003175 56.116850796033326 H 0.0 **** 0.06
34040 H 68.59010099369902 62.32479877156027 55.71029304325008 H 0.0 **** 0.06
34041 C 66.91027776345442 56.96543078266117 112.81829142215761 C 0.0 **** -0.24
34042 H 67.46156112906885 57.825965946005965 112.44149870686746 H 0.0 **** 0.06
34043 H 67.1405237657388 56.8198092265321 113.87388326030648 H 0.0 **** 0.06
34044 H 67.19713813656057 56.076266385971365 112.25693524052164 H 0.0 **** 0.06
34045 H 65.84035176600162 57.13927786478811 112.70015774896515 H 0.0 **** 0.06
34046 C 19.758195194074943 71.73331170063702 74.23738969683853 C 0.0 **** -0.24
34047 H 19.650626563804593 70.69889520077038 74.5669630301457 H 0.0 **** 0.06
34048 H 19.960781574437192 71.75248318297321 73.16663661255785 H 0.0 **** 0.06
34049 H 20.584385046750242 72.20007171412877 74.77258901691084 H 0.0 **** 0.06
34050 H 18.83663743695419 72.27714609848334 74.44387065852771 H 0.0 **** 0.06
34051 C 45.10208072049517 45.06032143684827 4.370600334738015 C 0.0 **** -0.24
34052 H 45.983630901706135 44.6046802918239 4.821860133591429 H 0.0 **** 0.06
34053 H 45.39821253569636 45.95088116995585 3.8150282391931682 H 0.0 **** 0.06
34054 H 44.39681995403009 45.33860430366829 5.153129445628622 H 0.0 **** 0.06
34055 H 44.63162624834149 44.348500729882744 3.6928586491692954 H 0.0 **** 0.06
34056 C 32.18191831101525 112.72008287245609 28.343729229595127 C 0.0 **** -0.24
34057 H 32.776338938780526 112.1754701802032 29.076143727968557 H 0.0 **** 0.06
34058 H 31.253296852151408 112.18025069504745 28.15454028801588 H 0.0 **** 0.06
34059 H 32.74554079968152 112.81035944851706 27.41409171519544 H 0.0 **** 0.06
34060 H 31.95337126826432 113.71400324216916 28.7278665595459 H 0.0 **** 0.06
34061 C 54.19230681113288 102.58609347522275 99.28539529691187 C 0.0 **** -0.24
34062 H 54.792613026647984 103.48994453241818 99.38943702610916 H 0.0 **** 0.06
34063 H 54.156193584465285 102.06227658616933 100.24038202080652 H 0.0 **** 0.06
34064 H 54.638017787675864 101.93850595090461 98.53124212152261 H 0.0 **** 0.06
34065 H 53.18114756416725 102.85549347078813 98.98064035783048 H 0.0 **** 0.06
34066 C 66.53388275820177 20.44172067399144 7.215889033931768 C 0.0 **** -0.24
34067 H 66.30377471871881 21.294587585397842 7.854764850969914 H 0.0 **** 0.06
34068 H 66.18860184323049 20.644904748069496 6.201861260667476 H 0.0 **** 0.06
34069 H 66.03150862984657 19.554112123555885 7.599756499956166 H 0.0 **** 0.06
34070 H 67.61057089524266 20.27520111681603 7.206789697963217 H 0.0 **** 0.06
34071 C 87.7786543799838 31.792011583223143 41.958232643524624 C 0.0 **** -0.24
34072 H 87.27936338297255 32.583867813549205 41.401094333536264 H 0.0 **** 0.06
34073 H 87.1189859970394 31.432076539479226 42.748504381868685 H 0.0 **** 0.06
34074 H 88.6962302726426 32.18099866597231 42.40063353252589 H 0.0 **** 0.06
34075 H 88.01987448883736 30.970382312160268 41.28390397125909 H 0.0 **** 0.06
34076 C 100.41208498681982 35.22138930485377 66.14881131248632 C 0.0 **** -0.24
34077 H 100.28681995207836 35.883333414881236 67.00574867156234 H 0.0 **** 0.06
34078 H 100.19142122217193 34.196569338110976 66.44731173295867 H 0.0 **** 0.06
34079 H 101.43957079241451 35.28253468630359 65.79081815726556 H 0.0 **** 0.06
34080 H 99.73122177374245 35.52442467261531 65.35397751736005 H 0.0 **** 0.06
34081 C 58.02137245273379 58.26409554128511 85.5012196863795 C 0.0 **** -0.24
34082 H 58.340370234502906 58.86558541917244 86.35208117522276 H 0.0 **** 0.06
34083 H 56.987117008464544 58.50489090913796 85.2538671535687 H 0.0 **** 0.06
34084 H 58.09784163425838 57.2070411348816 85.75547034436843 H 0.0 **** 0.06
34085 H 58.66017261355541 58.47887911086398 84.64519207412292 H 0.0 **** 0.06
34086 C 53.253992180862156 87.24912046504966 35.61313163209786 C 0.0 **** -0.24
34087 H 53.277934392122006 87.02088919261575 34.54778605703734 H 0.0 **** 0.06
34088 H 52.29284726734852 86.94347760434962 36.02823757649156 H 0.0 **** 0.06
34089 H 53.387759015836934 88.32206866678294 35.7576953421472 H 0.0 **** 0.06
34090 H 54.05662970365381 86.71184872781151 36.118469203866766 H 0.0 **** 0.06
34091 C 14.901904769543677 19.008394078813694 3.170949183298717 C 0.0 **** -0.24
34092 H 15.958437035684597 19.244153657087423 3.2938023046073397 H 0.0 **** 0.06
34093 H 14.74389330023547 18.54410963985663 2.1965476182745363 H 0.0 **** 0.06
34094 H 14.3151168372641 19.9252822886163 3.23583341137919 H 0.0 **** 0.06
34095 H 14.588553653193486 18.32029852302614 3.955794086934276 H 0.0 **** 0.06
34096 C 114.56483204720227 115.24904224923243 82.96252283965475 C 0.0 **** -0.24
34097 H 115.55141335249718 114.84447029808571 83.18979770165274 H 0.0 **** 0.06
34098 H 114.53713729267974 115.57580722759089 81.92272062228378 H 0.0 **** 0.06
34099 H 114.3606862101616 116.09755689991466 83.61618818076249 H 0.0 **** 0.06
34100 H 113.81081555811718 114.47731514735169 83.12204545175246 H 0.0 **** 0.06
34101 C 72.29187707321651 15.260212915118643 27.03717703176042 C 0.0 **** -0.24
34102 H 71.5844037539893 14.632624013289345 26.49613398284876 H 0.0 **** 0.06
34103 H 73.15601252050507 14.663852736899017 27.32979183972597 H 0.0 **** 0.06
34104 H 71.81146650276659 15.665503455419127 27.928037436621082 H 0.0 **** 0.06
34105 H 72.6161429792734 16.07913961201905 26.395557506230148 H 0.0 **** 0.06
34106 C 49.29279971877115 43.338287147565495 68.9534072948203 C 0.0 **** -0.24
34107 H 50.17590190516463 43.02148301474608 69.50924153089 H 0.0 **** 0.06
34108 H 49.29644044789668 42.86954393196686 67.96969520851098 H 0.0 **** 0.06
34109 H 49.30517311080873 44.422494032007364 68.84140148244137 H 0.0 **** 0.06
34110 H 48.395953760440655 43.039147536017026 69.49543935739757 H 0.0 **** 0.06
34111 C 5.747854136396825 91.10758589831323 112.79034823678674 C 0.0 **** -0.24
34112 H 5.056032882916071 91.75220467547621 113.33057025411418 H 0.0 **** 0.06
34113 H 6.459134200742312 90.66980658060109 113.49172187840537 H 0.0 **** 0.06
34114 H 6.285229011018657 91.6941740928533 112.0451834892938 H 0.0 **** 0.06
34115 H 5.191903830978305 90.31276585583419 112.29338716676943 H 0.0 **** 0.06
34116 C 65.51595515108127 30.659282898408108 33.88702391001541 C 0.0 **** -0.24
34117 H 66.0758432082402 29.77370274563463 33.58546768925843 H 0.0 **** 0.06
34118 H 66.09187263363532 31.220072359003602 34.62267542786088 H 0.0 **** 0.06
34119 H 64.5642173355578 30.356764989799665 34.32302961101521 H 0.0 **** 0.06
34120 H 65.33195624547366 31.287126045028835 33.01365027334269 H 0.0 **** 0.06
34121 C 63.54683088104292 50.37490642612576 40.01652244153662 C 0.0 **** -0.24
34122 H 62.97179725263578 51.27843508838677 39.81264189676044 H 0.0 **** 0.06
34123 H 62.865376353533065 49.55859768291637 40.258604659058854 H 0.0 **** 0.06
34124 H 64.21479667325542 50.55284853098712 40.85970706760172 H 0.0 **** 0.06
34125 H 64.13358057841185 50.11172241312542 39.13653100807388 H 0.0 **** 0.06
34126 C 92.62212267985853 94.66247995727633 63.23978495200058 C 0.0 **** -0.24
34127 H 93.33876488826499 95.13178346035352 62.56515528957275 H 0.0 **** 0.06
34128 H 92.96640119893434 94.77217873364714 64.26886440957242 H 0.0 **** 0.06
34129 H 92.53330730270238 93.60432945177104 62.99705834040922 H 0.0 **** 0.06
34130 H 91.64980386404582 95.14385085679692 63.12818195750442 H 0.0 **** 0.06
34131 C 80.4339906928702 102.14285226249055 105.81805752244 C 0.0 **** -0.24
34132 H 80.94908412808854 102.80496832632451 106.51463636575784 H 0.0 **** 0.06
34133 H 80.97951024142333 102.11326345356491 104.87462765517373 H 0.0 **** 0.06
34134 H 79.42442815699235 102.51425438397072 105.64310925614632 H 0.0 **** 0.06
34135 H 80.38453670376768 101.13935363963728 106.24136215681884 H 0.0 **** 0.06
34136 C 1.5861572073339119 27.224708545404212 37.809693541321565 C 0.0 **** -0.24
34137 H 2.0814688172133913 27.26745392597512 36.84009457305578 H 0.0 **** 0.06
34138 H 0.6380433487260291 26.69412815347289 37.70964525262522 H 0.0 **** 0.06
34139 H 1.4001064942332846 28.23717071713662 38.16803757766965 H 0.0 **** 0.06
34140 H 2.223554358286009 26.698694234578113 38.52001864202535 H 0.0 **** 0.06
34141 C 31.6039595258284 92.37596572688562 58.020555229142275 C 0.0 **** -0.24
34142 H 31.357787293913923 93.4155799244495 57.80234530579915 H 0.0 **** 0.06
34143 H 32.08209410016909 92.31458174838235 58.99821841617879 H 0.0 **** 0.06
34144 H 32.283699839758064 91.99663451933861 57.25859012850378 H 0.0 **** 0.06
34145 H 30.691309137307464 91.78039064623488 58.02329941057749 H 0.0 **** 0.06
34146 C 42.738844570549496 89.78641945991018 20.804010800152753 C 0.0 **** -0.24
34147 H 43.72474199561885 90.21787346324089 20.633456922542475 H 0.0 **** 0.06
34148 H 41.97531315990989 90.45331839412773 20.402932764672848 H 0.0 **** 0.06
34149 H 42.580709072875784 89.65621969307853 21.87461864325162 H 0.0 **** 0.06
34150 H 42.67502029541918 88.81899285336561 20.307110288775355 H 0.0 **** 0.06
34151 C 101.10299578510441 19.735153014702746 108.58395196838642 C 0.0 **** -0.24
34152 H 101.4143821563232 20.07491831968531 107.59610276983915 H 0.0 **** 0.06
34153 H 101.42230844083085 18.70204928873744 108.72899407326351 H 0.0 **** 0.06
34154 H 100.01803772387603 19.795075872670736 108.66333810893141 H 0.0 **** 0.06
34155 H 101.55964287512865 20.36616757301175 109.34578132518082 H 0.0 **** 0.06
34156 C 68.59404274439098 105.196727797481 5.210321643984656 C 0.0 **** -0.24
34157 H 69.65583412931238 105.22565514130508 5.454274935736066 H 0.0 **** 0.06
34158 H 68.18715042852733 106.20803386608759 5.238635990956482 H 0.0 **** 0.06
34159 H 68.0719953259871 104.57330001286971 5.935294870340073 H 0.0 **** 0.06
34160 H 68.46353588420453 104.7797827074375 4.210963448404556 H 0.0 **** 0.06
34161 C 116.60681116635034 20.31427120178756 27.233738891786267 C 0.0 **** -0.24
34162 H 116.50340834565426 20.5164556327796 26.167690453110502 H 0.0 **** 0.06
34163 H 116.15446227976432 19.349698421646547 27.465268225305323 H 0.0 **** 0.06
34164 H 116.10569599620827 21.097012651974126 27.802669764324065 H 0.0 **** 0.06
34165 H 117.66446967968194 20.292925091104664 27.498149237066272 H 0.0 **** 0.06
34166 C 52.8190166761419 100.47877458127431 5.472775424737108 C 0.0 **** -0.24
34167 H 53.30926412078688 99.82526306195788 4.750820347492237 H 0.0 **** 0.06
34168 H 52.443549692426075 101.36657721952216 4.962754784105911 H 0.0 **** 0.06
34169 H 53.53636896362755 100.77469289411565 6.23841308588112 H 0.0 **** 0.06
34170 H 51.988889941545864 99.94809100285624 5.938246657515336 H 0.0 **** 0.06
34171 C 72.5220085937494 55.712731107961275 62.12936902274584 C 0.0 **** -0.24
34172 H 72.16875842596062 55.17600650516658 61.24866078024372 H 0.0 **** 0.06
34173 H 73.17979574139741 56.524266054657375 61.820683139664375 H 0.0 **** 0.06
34174 H 73.06888363778816 55.02641939060558 62.776672611406106 H 0.0 **** 0.06
34175 H 71.66923112470676 56.12081762786494 62.67214886909472 H 0.0 **** 0.06
34176 C 80.92307845155378 109.3905263953238 64.74409388669608 C 0.0 **** -0.24
34177 H 81.4266348893145 108.44045590676836 64.92448230988987 H 0.0 **** 0.06
34178 H 80.03305683365932 109.21976856673749 64.13770349975016 H 0.0 **** 0.06
34179 H 81.59723613832566 110.06484331676128 64.21761979677387 H 0.0 **** 0.06
34180 H 80.63484694259861 109.83487952044686 65.69634270734093 H 0.0 **** 0.06
34181 C 98.42632470786023 76.8588498018213 73.0792863565606 C 0.0 **** -0.24
34182 H 97.81586394519206 76.91982415031671 72.17774833062444 H 0.0 **** 0.06
34183 H 98.77552722913796 75.83502526337233 73.21228960525264 H 0.0 **** 0.06
34184 H 97.82975438854547 77.15547358443848 73.9419833789585 H 0.0 **** 0.06
34185 H 99.28287833419938 77.52565840920317 72.98247154511773 H 0.0 **** 0.06
34186 C 59.920663507553314 73.12095581593749 27.16939865467475 C 0.0 **** -0.24
34187 H 59.53090550869666 72.21026919179792 27.6254826471814 H 0.0 **** 0.06
34188 H 59.23826460993925 73.45652199791704 26.388757877883734 H 0.0 **** 0.06
34189 H 60.89960110467163 72.91870744753265 26.735879694184575 H 0.0 **** 0.06
34190 H 60.01277578025844 73.89641575333562 27.929950552470814 H 0.0 **** 0.06
34191 C 6.7280283177702085 59.68821991365789 76.2393227387505 C 0.0 **** -0.24
34192 H 6.229312353922776 60.65815861132816 76.22677819332361 H 0.0 **** 0.06
34193 H 6.073809562051407 58.950346246815684 76.70423054202178 H 0.0 **** 0.06
34194 H 7.654646396920025 59.763017172102394 76.80710366750176 H 0.0 **** 0.06
34195 H 6.952322085812668 59.382309414015594 75.21717790068433 H 0.0 **** 0.06
34196 C 50.88711124887851 24.046204437174765 99.85039822810322 C 0.0 **** -0.24
34197 H 51.79008049491252 24.63319695953038 100.01691626904028 H 0.0 **** 0.06
34198 H 50.050457109875985 24.509745151900802 100.37321256237968 H 0.0 **** 0.06
34199 H 51.03654912780427 23.03467559679632 100.22895830646601 H 0.0 **** 0.06
34200 H 50.67122633229936 24.005485454441953 98.78271305020587 H 0.0 **** 0.06
34201 C 58.196269801605325 44.0735719305917 12.524681687981452 C 0.0 **** -0.24
34202 H 57.45480609804707 43.74155236656202 13.251689649717065 H 0.0 **** 0.06
34203 H 57.841681939784934 43.85331958484204 11.517795738420524 H 0.0 **** 0.06
34204 H 59.1365534976394 43.55143792138773 12.70085658639006 H 0.0 **** 0.06
34205 H 58.35123681580842 45.1478640743814 12.628972777651374 H 0.0 **** 0.06
34206 C 64.75853681606242 37.10775167990161 104.49810266209596 C 0.0 **** -0.24
34207 H 64.62750219075713 37.052676979795294 105.57913999390132 H 0.0 **** 0.06
34208 H 65.46362079130532 36.33976664868668 104.17924128966641 H 0.0 **** 0.06
34209 H 65.14476625089995 38.09064542691272 104.22836637288864 H 0.0 **** 0.06
34210 H 63.79920698599329 36.94641643889672 104.00735004729717 H 0.0 **** 0.06
34211 C 22.267693368038085 0.8622400874322693 18.26877270024488 C 0.0 **** -0.24
34212 H 21.589468259365997 1.6438818510850979 18.610242741058016 H 0.0 **** 0.06
34213 H 21.80042979703417 0.30753019926716263 17.453555056615755 H 0.0 **** 0.06
34214 H 22.48496227764469 0.18310383832252342 19.093121615693633 H 0.0 **** 0.06
34215 H 23.19510723863275 1.314466404650588 17.91528165285513 H 0.0 **** 0.06
34216 C 37.070699108334395 69.877799264674 46.56679193966761 C 0.0 **** -0.24
34217 H 37.188926510854685 68.79475462613252 46.522626290098344 H 0.0 **** 0.06
34218 H 37.29827369851415 70.22755928070268 47.57386081239292 H 0.0 **** 0.06
34219 H 36.04396802681413 70.14137680665533 46.312408084276456 H 0.0 **** 0.06
34220 H 37.75262747393833 70.34676692714388 45.856413809656146 H 0.0 **** 0.06
34221 C 96.18918501155693 77.24884193047822 7.894396151290849 C 0.0 **** -0.24
34222 H 95.90583810198382 76.85141453523585 6.920169834669906 H 0.0 **** 0.06
34223 H 95.36346219396049 77.8318732415164 8.30261582333047 H 0.0 **** 0.06
34224 H 97.06573172672091 77.88770094066444 7.783996789646395 H 0.0 **** 0.06
34225 H 96.42275415884575 76.42528568567027 8.569046076519783 H 0.0 **** 0.06
34226 C 43.611723385330116 70.71784496315058 91.17337531406014 C 0.0 **** -0.24
34227 H 42.7191774591735 71.14353648489254 91.63255664852363 H 0.0 **** 0.06
34228 H 44.47622596030544 70.91674499262538 91.8080335962344 H 0.0 **** 0.06
34229 H 43.76755810608255 71.1713682662874 90.19475685264436 H 0.0 **** 0.06
34230 H 43.48435178456408 69.64126775545381 91.05972251057096 H 0.0 **** 0.06
34231 C 25.447089231148503 114.87791317646494 86.68504782135494 C 0.0 **** -0.24
34232 H 26.163931536481954 115.49506274824137 87.22584670099997 H 0.0 **** 0.06
34233 H 24.50337874945241 115.4158645481171 86.59052871791476 H 0.0 **** 0.06
34234 H 25.284064214859484 113.94903607098269 87.23039546854125 H 0.0 **** 0.06
34235 H 25.83771129592821 114.65317608340041 85.69291195993642 H 0.0 **** 0.06
34236 C 74.69264459657995 54.49755149155129 37.97090816280087 C 0.0 **** -0.24
34237 H 74.48858852033317 54.10483636180385 38.96639338994987 H 0.0 **** 0.06
34238 H 74.3536174209091 53.78231580306215 37.22180975599733 H 0.0 **** 0.06
34239 H 75.76383712169837 54.66253770832304 37.857664829268685 H 0.0 **** 0.06
34240 H 74.16417178176951 55.4418588115617 37.837509606378376 H 0.0 **** 0.06
34241 C 50.12300422415474 34.27543311637362 2.77011611689424 C 0.0 **** -0.24
34242 H 50.72261796346261 33.737692755769615 2.0356178946318835 H 0.0 **** 0.06
34243 H 50.556920992009175 34.13912862575967 3.7612822773513326 H 0.0 **** 0.06
34244 H 49.104357216821725 33.887041957845554 2.762205756818153 H 0.0 **** 0.06
34245 H 50.109437536507926 35.33675310778517 2.521502354293437 H 0.0 **** 0.06
34246 C 14.370279407548082 40.21152603259936 58.647982476461465 C 0.0 **** -0.24
34247 H 13.515220895952211 39.9320074837446 58.03342473286759 H 0.0 **** 0.06
34248 H 15.162249271061654 39.471894640124695 58.526697049373325 H 0.0 **** 0.06
34249 H 14.068245233917594 40.2527665990542 59.695282641316055 H 0.0 **** 0.06
34250 H 14.736303776082849 41.191071094757966 58.33811043930265 H 0.0 **** 0.06
34251 C 3.459162481694234 35.18600760064261 61.41233937484671 C 0.0 **** -0.24
34252 H 2.4313086735702996 35.29383796419527 61.067434942923285 H 0.0 **** 0.06
34253 H 3.998225749698113 34.51430774331217 60.74499838056809 H 0.0 **** 0.06
34254 H 3.4617978659952904 34.775475543188044 62.42296816673067 H 0.0 **** 0.06
34255 H 3.944896629547774 36.162421559260366 61.41635883027911 H 0.0 **** 0.06
34256 C 95.85528791872434 33.790543817558614 105.40497844370634 C 0.0 **** -0.24
34257 H 95.11248297265263 34.060411317882 106.15611514882511 H 0.0 **** 0.06
34258 H 95.41961841207251 33.07883708969126 104.70259772719697 H 0.0 **** 0.06
34259 H 96.71790434578827 33.33735058416909 105.89353116599165 H 0.0 **** 0.06
34260 H 96.17048083479705 34.685455637212954 104.8684067083669 H 0.0 **** 0.06
34261 C 57.479144600352924 19.071474318689628 38.41026059026175 C 0.0 **** -0.24
34262 H 56.80805353828862 18.217579866935736 38.319414585336226 H 0.0 **** 0.06
34263 H 58.281828562503904 18.98154803383108 37.67829085777576 H 0.0 **** 0.06
34264 H 57.902483274994324 19.094791102153845 39.4143341179567 H 0.0 **** 0.06
34265 H 56.92292497601596 19.99161822989433 38.22946259787239 H 0.0 **** 0.06
34266 C 6.777572644438436 84.27447685283755 19.663343934948895 C 0.0 **** -0.24
34267 H 6.249259803348892 83.60303681223479 18.986037642939756 H 0.0 **** 0.06
34268 H 7.800262907037492 84.41460997233693 19.310445344567672 H 0.0 **** 0.06
34269 H 6.794026524433093 83.84157412547577 20.663527148284956 H 0.0 **** 0.06
34270 H 6.267274210907132 85.23705848086814 19.691928283079417 H 0.0 **** 0.06
34271 C 72.04275585655802 84.16775183421001 91.58898126712083 C 0.0 **** -0.24
34272 H 72.77958198568717 84.68539196726442 90.97462394050592 H 0.0 **** 0.06
34273 H 72.12055389247274 83.09324101455474 91.41994874681785 H 0.0 **** 0.06
34274 H 71.0417640908384 84.50638641353149 91.31912361585677 H 0.0 **** 0.06
34275 H 72.22914102605984 84.38509229042114 92.64017991422241 H 0.0 **** 0.06
34276 C 55.38256651895935 15.193431168299501 101.71217485385381 C 0.0 **** -0.24
34277 H 56.34520952090005 15.425903871227241 101.25705196438093 H 0.0 **** 0.06
34278 H 55.23321288048459 14.113599775116462 101.71408073445855 H 0.0 **** 0.06
34279 H 54.58550198351199 15.670274892780998 101.14093917022979 H 0.0 **** 0.06
34280 H 55.36638999589565 15.565167822140936 102.73733836347935 H 0.0 **** 0.06
34281 C 52.59852108939339 24.69740740300935 23.94226295101211 C 0.0 **** -0.24
34282 H 51.81418217324705 24.252765243112606 23.329649055792714 H 0.0 **** 0.06
34283 H 52.1693714593477 25.055746300676873 24.87817898286079 H 0.0 **** 0.06
34284 H 53.048252306129456 25.53273873210611 23.405534556695443 H 0.0 **** 0.06
34285 H 53.36200465450935 23.94959686774169 24.155023787036725 H 0.0 **** 0.06
34286 C 25.97253771529924 60.05412854990311 91.89651248040548 C 0.0 **** -0.24
34287 H 26.59180864862732 59.94528064030936 92.7869857364314 H 0.0 **** 0.06
34288 H 25.01745991417596 60.50108971904115 92.17141435105592 H 0.0 **** 0.06
34289 H 25.801097225640234 59.07356871007687 91.4524927501613 H 0.0 **** 0.06
34290 H 26.481813187360217 60.69511619960258 91.17709586018455 H 0.0 **** 0.06
34291 C 29.210623960628418 74.92356672521692 59.93693245354723 C 0.0 **** -0.24
34292 H 28.50026492668769 74.67780267942283 60.72704643956649 H 0.0 **** 0.06
34293 H 30.15213707653728 74.40584694217944 60.12213041079599 H 0.0 **** 0.06
34294 H 29.38340157576399 75.99919897177557 59.92697939214963 H 0.0 **** 0.06
34295 H 28.805909032121967 74.61088588821451 58.9745907986794 H 0.0 **** 0.06
34296 C 8.57183758249107 59.956964606444366 98.60929922498471 C 0.0 **** -0.24
34297 H 8.044595380445884 59.417548672154645 97.82198726851828 H 0.0 **** 0.06
34298 H 7.916704253179873 60.065937898109915 99.47448602335237 H 0.0 **** 0.06
34299 H 8.858489409213888 60.94320763139394 98.24343254693196 H 0.0 **** 0.06
34300 H 9.464023042290492 59.400948179388216 98.89609316261561 H 0.0 **** 0.06
34301 C 32.78951640562388 10.784163863260346 1.6635009395674842 C 0.0 **** -0.24
34302 H 32.49975431639877 10.636873643482488 2.704198072825932 H 0.0 **** 0.06
34303 H 33.683900509939946 10.197600502610953 1.4497380934242585 H 0.0 **** 0.06
34304 H 32.996563198147214 11.839477065615256 1.4907596974206854 H 0.0 **** 0.06
34305 H 31.978443957156983 10.460504956288844 1.0121022202265806 H 0.0 **** 0.06
34306 C 114.87606359166524 82.41646807169616 102.62169191047377 C 0.0 **** -0.24
34307 H 114.86396542472434 81.41657755855243 102.18618915766214 H 0.0 **** 0.06
34308 H 113.93884947285785 82.92356836727075 102.39243452301278 H 0.0 **** 0.06
34309 H 115.70801608251493 82.98346860097485 102.2035048207787 H 0.0 **** 0.06
34310 H 114.99422462916863 82.34027726894041 103.70191217104255 H 0.0 **** 0.06
34311 C 88.53946227019554 72.93665425497875 34.285147434765605 C 0.0 **** -0.24
34312 H 88.24472286022689 73.11052447823073 35.320771342845006 H 0.0 **** 0.06
34313 H 89.3416390546833 73.6243413277844 34.01581880621154 H 0.0 **** 0.06
34314 H 87.68389249739533 73.1011755002335 33.631340125400044 H 0.0 **** 0.06
34315 H 88.88864045833878 71.90970657973514 34.17533368453414 H 0.0 **** 0.06
34316 C 67.86838062143491 67.10185927832106 97.7457099227357 C 0.0 **** -0.24
34317 H 67.11202185814506 66.52473791231992 98.27877313204675 H 0.0 **** 0.06
34318 H 68.36371671367431 67.78057082254773 98.44046944609713 H 0.0 **** 0.06
34319 H 67.3925311266074 67.67667230566067 96.9515058065594 H 0.0 **** 0.06
34320 H 68.60338259047128 66.4235501973709 97.31405870079595 H 0.0 **** 0.06
34321 C 41.159751485410936 112.65027671963446 0.028811098671880586 C 0.0 **** -0.24
34322 H 40.36940642411244 112.03284095196841 -0.39630963117227225 H 0.0 **** 0.06
34323 H 41.86169169006823 112.93298362503249 -0.7556515935593779 H 0.0 **** 0.06
34324 H 41.68433601426591 112.08767811140181 0.8011250552887788 H 0.0 **** 0.06
34325 H 40.723254793242546 113.5484006360811 0.4675856708889228 H 0.0 **** 0.06
34326 C 74.83654528109872 36.88947613657609 93.01787722157354 C 0.0 **** -0.24
34327 H 74.75474137852066 35.879898887610665 93.42211964585164 H 0.0 **** 0.06
34328 H 75.54522976547534 37.4631739694932 93.61510168503474 H 0.0 **** 0.06
34329 H 73.86061514177729 37.372282175997725 93.04867597367542 H 0.0 **** 0.06
34330 H 75.1869292701563 36.839771049817074 91.98748246076178 H 0.0 **** 0.06
34331 C 37.60486269984846 65.26610072312786 79.57634796137711 C 0.0 **** -0.24
34332 H 38.382750203978524 65.73735494624734 78.97544408936511 H 0.0 **** 0.06
34333 H 37.295396602035076 64.33406534139701 79.10376915457289 H 0.0 **** 0.06
34334 H 36.75016128473414 65.93717072437312 79.65512263305754 H 0.0 **** 0.06
34335 H 37.99454013751654 65.05595890767123 80.57261695306676 H 0.0 **** 0.06
34336 C 72.80448607275113 30.638720497067467 51.35138734570018 C 0.0 **** -0.24
34337 H 72.23537108112015 30.942571244424705 50.47339659640961 H 0.0 **** 0.06
34338 H 72.69771157409676 29.56398258877197 51.49933197909874 H 0.0 **** 0.06
34339 H 72.42714986815855 31.165843569436944 52.228527989194916 H 0.0 **** 0.06
34340 H 73.8566750360857 30.884491560185438 51.20524022992237 H 0.0 **** 0.06
34341 C 53.82513315602915 60.88996732456263 2.123078386984062 C 0.0 **** -0.24
34342 H 53.432055496813575 61.35713183389845 1.2208549321870237 H 0.0 **** 0.06
34343 H 54.761178296485696 61.37241007364747 2.404217936896714 H 0.0 **** 0.06
34344 H 54.00419845172573 59.83108295751106 1.9357724909019396 H 0.0 **** 0.06
34345 H 53.102856072129384 60.997934816486975 2.931942881841053 H 0.0 **** 0.06
34346 C 36.664193920089616 62.29796383237141 110.29181203481885 C 0.0 **** -0.24
34347 H 37.347179232244514 62.14169173136423 109.45728940866536 H 0.0 **** 0.06
34348 H 37.202184813025895 62.167908263863524 111.23149410124765 H 0.0 **** 0.06
34349 H 35.85080233459962 61.57549370546758 110.23604531511943 H 0.0 **** 0.06
34350 H 36.25739272341116 63.3086868288226 110.24324402243971 H 0.0 **** 0.06
34351 C 43.88415227717839 37.65540668395468 31.46911738847959 C 0.0 **** -0.24
34352 H 44.15569668068063 36.648306860769765 31.153198838439977 H 0.0 **** 0.06
34353 H 44.78069814963 38.19285162999117 31.778150390268905 H 0.0 **** 0.06
34354 H 43.18862453292222 37.59721565822193 32.30730950258098 H 0.0 **** 0.06
34355 H 43.41089475432157 38.18145837048135 30.640112625707133 H 0.0 **** 0.06
34356 C 46.37093374432442 50.86198490395816 4.329394146944265 C 0.0 **** -0.24
34357 H 46.030540190489006 50.652295720125494 5.3437238146393575 H 0.0 **** 0.06
34358 H 47.12582305904462 50.129917599675366 4.0410183531079635 H 0.0 **** 0.06
34359 H 46.80095887380497 51.86287578800312 4.289823940359611 H 0.0 **** 0.06
34360 H 45.52555488411093 50.80179459008775 3.643396538138889 H 0.0 **** 0.06
34361 C 108.45573210080642 22.00622832836681 30.183083729332765 C 0.0 **** -0.24
34362 H 108.86358609870747 22.872743094306948 29.662339783200935 H 0.0 **** 0.06
34363 H 109.23555805805769 21.54957962900648 30.79317097816812 H 0.0 **** 0.06
34364 H 108.0925068403539 21.28196376348878 29.454263319041416 H 0.0 **** 0.06
34365 H 107.63179217900574 22.322760759795596 30.82298701588232 H 0.0 **** 0.06
34366 C 92.20033222828675 27.887146580346467 73.4524954303022 C 0.0 **** -0.24
34367 H 92.48155238101873 28.337194674448256 72.49970480194042 H 0.0 **** 0.06
34368 H 92.30730562633363 26.804049140768825 73.38778352837849 H 0.0 **** 0.06
34369 H 91.16401583282749 28.137777419767403 73.67998279309123 H 0.0 **** 0.06
34370 H 92.84765342646972 28.27027176086797 74.24054635129178 H 0.0 **** 0.06
34371 C 109.93750216840921 70.50057379791173 87.30673631822438 C 0.0 **** -0.24
34372 H 110.2970508196224 70.06987555026421 86.37216809841883 H 0.0 **** 0.06
34373 H 109.11885191620382 69.89397686068514 87.69547910375437 H 0.0 **** 0.06
34374 H 109.58328425040044 71.51537480100956 87.12616349613705 H 0.0 **** 0.06
34375 H 110.75078001106228 70.52359630280506 88.03228652045257 H 0.0 **** 0.06
34376 C 98.26761285299798 71.97367009807442 12.916676773205438 C 0.0 **** -0.24
34377 H 97.88958556741906 72.29936125356153 13.886137783424232 H 0.0 **** 0.06
34378 H 97.47779077262754 72.0661836027864 12.170253715779722 H 0.0 **** 0.06
34379 H 98.58795828632915 70.93373852987423 12.981384667402537 H 0.0 **** 0.06
34380 H 99.11411164642368 72.59737355942553 12.628642443447234 H 0.0 **** 0.06
34381 C 47.51539354966707 103.18627043761398 13.009991955011571 C 0.0 **** -0.24
34382 H 48.38276033394958 103.83276777505438 13.145911260236232 H 0.0 **** 0.06
34383 H 47.79240588477552 102.33221016739833 12.391907663846439 H 0.0 **** 0.06
34384 H 46.7190732157442 103.74733420305563 12.519669190180963 H 0.0 **** 0.06
34385 H 47.168010172018526 102.83558848187761 13.980867751787912 H 0.0 **** 0.06
34386 C 54.838801016390164 61.1002748489827 47.79193197198401 C 0.0 **** -0.24
34387 H 54.627503902648726 60.55356329554838 46.87207651400885 H 0.0 **** 0.06
34388 H 54.01274640184005 60.9667204133166 48.4908740209334 H 0.0 **** 0.06
34389 H 54.956547875695975 62.15927852886059 47.565512533138644 H 0.0 **** 0.06
34390 H 55.756892606710636 60.71903039035379 48.23770701974981 H 0.0 **** 0.06
34391 C 32.50382917479904 32.68856915407569 85.06027542500149 C 0.0 **** -0.24
34392 H 31.942737518800826 33.61799301176672 84.96581177571571 H 0.0 **** 0.06
34393 H 32.07480233938527 31.936362785265942 84.39829391602146 H 0.0 **** 0.06
34394 H 32.45370400591105 32.33678847702289 86.09089892947361 H 0.0 **** 0.06
34395 H 33.54477623390038 32.8637688403856 84.78641355675029 H 0.0 **** 0.06
34396 C 54.822513429533664 84.88872315263319 64.08234873190952 C 0.0 **** -0.24
34397 H 54.172384339686644 85.5223434813357 64.68479653201916 H 0.0 **** 0.06
34398 H 55.852036033056486 85.23730738803962 64.16981450558359 H 0.0 **** 0.06
34399 H 54.5105188518628 84.93371741071527 63.03962260257591 H 0.0 **** 0.06
34400 H 54.75622942211276 83.85989155444761 64.43741772253563 H 0.0 **** 0.06
34401 C 44.40292917799968 73.19664926711769 115.7574495862149 C 0.0 **** -0.24
34402 H 44.166921054390045 73.97638888589469 116.48189784658462 H 0.0 **** 0.06
34403 H 45.40056347767494 72.80579263172072 115.95816548782469 H 0.0 **** 0.06
34404 H 44.36998532500727 73.61434301057724 114.75137176427228 H 0.0 **** 0.06
34405 H 43.673592045974765 72.39042801949648 115.84047159861825 H 0.0 **** 0.06
34406 C 89.46379871102837 56.83870330900129 93.07542231932311 C 0.0 **** -0.24
34407 H 88.951512236891 55.90041642168376 92.86183329719998 H 0.0 **** 0.06
34408 H 88.86491722223337 57.671458299388945 92.70500886678116 H 0.0 **** 0.06
34409 H 90.435468928245 56.841684302277855 92.58320796493425 H 0.0 **** 0.06
34410 H 89.60083578282646 56.93981193501955 94.15256943948336 H 0.0 **** 0.06
34411 C 40.819644833289544 35.61832844191056 80.6963852993133 C 0.0 **** -0.24
34412 H 41.57261631174532 36.180295012894646 81.25033347354326 H 0.0 **** 0.06
34413 H 39.88154698929327 35.62564440868522 81.2500050139019 H 0.0 **** 0.06
34414 H 41.15754936778302 34.59029902795396 80.56611631380628 H 0.0 **** 0.06
34415 H 40.66966068362399 36.0772110084547 79.71950533364824 H 0.0 **** 0.06
34416 C 105.16735409551089 43.49510950422382 75.06043711165779 C 0.0 **** -0.24
34417 H 106.16996732193985 43.910680201401284 74.95875776815862 H 0.0 **** 0.06
34418 H 105.2359172641539 42.417956092678516 75.21913085345847 H 0.0 **** 0.06
34419 H 104.59870011892875 43.693209317157574 74.15237101735161 H 0.0 **** 0.06
34420 H 104.66723736899016 43.95711542360183 75.91166666871732 H 0.0 **** 0.06
34421 C 71.49178995462768 76.61491227736255 53.870710401770964 C 0.0 **** -0.24
34422 H 72.04979927245256 76.4812056442855 54.797875515602755 H 0.0 **** 0.06
34423 H 70.88851705071897 75.72792338404284 53.67942155210278 H 0.0 **** 0.06
34424 H 72.18810620135883 76.76726959433563 53.046993333027984 H 0.0 **** 0.06
34425 H 70.84126293644198 77.485289955019 53.96209595686088 H 0.0 **** 0.06
34426 C 72.89071720959379 77.4791464967559 4.774187241097561 C 0.0 **** -0.24
34427 H 72.28975096365008 77.60205802824285 5.6755120016327645 H 0.0 **** 0.06
34428 H 73.73205640847527 78.17221306411898 4.802045834108261 H 0.0 **** 0.06
34429 H 72.27786582135155 77.68747396334203 3.8971195039401625 H 0.0 **** 0.06
34430 H 73.26371522599021 76.45663698486592 4.723298212413731 H 0.0 **** 0.06
34431 C 114.41548087013297 4.434163930532746 59.399099994283965 C 0.0 **** -0.24
34432 H 113.480811620285 4.996009762061879 59.40416851915743 H 0.0 **** 0.06
34433 H 114.62059775253095 4.079071929741396 58.389417037624845 H 0.0 **** 0.06
34434 H 114.33076104286532 3.5829877739888563 60.074206377471675 H 0.0 **** 0.06
34435 H 115.22847602441291 5.081233785240158 59.729208276908274 H 0.0 **** 0.06
34436 C 63.77395228527194 78.82108261487198 56.59598982309648 C 0.0 **** -0.24
34437 H 62.71758466712789 78.65215311109907 56.80292748330968 H 0.0 **** 0.06
34438 H 64.2121036762914 77.915512621946 56.17604896050258 H 0.0 **** 0.06
34439 H 64.28811397782769 79.07864293102963 57.52122672517408 H 0.0 **** 0.06
34440 H 63.877815188738715 79.63901177522598 55.882764491617344 H 0.0 **** 0.06
34441 C 53.23205673581875 82.72289967998222 103.25548492470031 C 0.0 **** -0.24
34442 H 53.80734959868079 82.78160471027098 104.1793863267988 H 0.0 **** 0.06
34443 H 52.17086993524924 82.64892294593568 103.49271048964428 H 0.0 **** 0.06
34444 H 53.54072832506557 81.84257837049819 102.69138012240577 H 0.0 **** 0.06
34445 H 53.410169254722675 83.61717825770961 102.65915560193346 H 0.0 **** 0.06
34446 C 104.68652286907633 35.41456209151477 36.36227874929898 C 0.0 **** -0.24
34447 H 105.18686339250007 35.22730049443963 35.41244224188705 H 0.0 **** 0.06
34448 H 103.8885459975362 34.68454700563956 36.501120033806416 H 0.0 **** 0.06
34449 H 104.26471711964507 36.41915483677862 36.358249420962096 H 0.0 **** 0.06
34450 H 105.4057725774864 35.32525026293517 37.17589608636662 H 0.0 **** 0.06
34451 C 12.76041016237096 39.520108415165794 37.07132814066699 C 0.0 **** -0.24
34452 H 11.810405098374048 39.104172735245015 37.40839032048444 H 0.0 **** 0.06
34453 H 12.916586483541778 40.49346430872822 37.53788821938062 H 0.0 **** 0.06
34454 H 12.742391800782457 39.63530300051474 35.98821945216241 H 0.0 **** 0.06
34455 H 13.571318031043319 38.847360620522124 37.352263819593134 H 0.0 **** 0.06
34456 C 44.78304736831751 40.25514774429334 112.57624509803945 C 0.0 **** -0.24
34457 H 43.71555459760225 40.06130255054981 112.67353899508115 H 0.0 **** 0.06
34458 H 45.28866874806209 39.347919502446274 112.24340131486416 H 0.0 **** 0.06
34459 H 45.185782060289796 40.56268659552626 113.54136560642968 H 0.0 **** 0.06
34460 H 44.943476328408394 41.049200462657666 111.84642605170927 H 0.0 **** 0.06
34461 C 30.218162408648993 20.213798900145093 8.400684228750848 C 0.0 **** -0.24
34462 H 29.516417590764547 20.25539992614833 9.233387356899868 H 0.0 **** 0.06
34463 H 29.70052713298975 19.86713396368924 7.505642233342044 H 0.0 **** 0.06
34464 H 31.02826311877851 19.524542846004806 8.641360284607146 H 0.0 **** 0.06
34465 H 30.62787908555731 21.207900977327 8.221019856829784 H 0.0 **** 0.06
34466 C 109.91863430699625 27.037390980920662 80.0725819481685 C 0.0 **** -0.24
34467 H 110.53111432959548 26.26209103582451 80.53381641353954 H 0.0 **** 0.06
34468 H 109.33639499658996 26.60409804106112 79.25829534139845 H 0.0 **** 0.06
34469 H 110.56308366644268 27.824468296375088 79.68004107917753 H 0.0 **** 0.06
34470 H 109.24394423535713 27.458906550421986 80.81817495855844 H 0.0 **** 0.06
34471 C 14.696431748338966 43.76562647103669 104.98874033826672 C 0.0 **** -0.24
34472 H 14.279379205118602 42.8621575104124 105.43547188490069 H 0.0 **** 0.06
34473 H 15.655288831559602 43.53072064155835 104.52492205044854 H 0.0 **** 0.06
34474 H 14.841648905336342 44.51945003690115 105.76136176461702 H 0.0 **** 0.06
34475 H 14.009728344713722 44.14649442624353 104.23262856448426 H 0.0 **** 0.06
34476 C 19.465149854330434 1.4294285351285225 43.153893737063726 C 0.0 **** -0.24
34477 H 20.10091126361789 1.0180955169343235 42.36920233058001 H 0.0 **** 0.06
34478 H 18.483320318060635 0.9564606484854323 43.109383107738765 H 0.0 **** 0.06
34479 H 19.35834514773569 2.5043831541470354 43.00750281448532 H 0.0 **** 0.06
34480 H 19.918300669852727 1.2379951878830582 44.125977328987844 H 0.0 **** 0.06
34481 C 22.086364824113296 43.66627942153099 18.74262582959676 C 0.0 **** -0.24
34482 H 22.3193912757403 44.37137887025881 19.541302533899398 H 0.0 **** 0.06
34483 H 21.5237536455365 44.17678397491147 17.96120935421726 H 0.0 **** 0.06
34484 H 21.490224841337284 42.84615570051295 19.144647291424292 H 0.0 **** 0.06
34485 H 23.012360334766978 43.27089725573455 18.325776707148748 H 0.0 **** 0.06
34486 C 68.05828858213602 83.97391861892655 26.96014445848111 C 0.0 **** -0.24
34487 H 68.0163470647332 84.94810053453895 27.446177797596036 H 0.0 **** 0.06
34488 H 68.15452797503599 84.10943578153817 25.882640363600515 H 0.0 **** 0.06
34489 H 67.1453488397309 83.41976169724646 27.177015544499852 H 0.0 **** 0.06
34490 H 68.91810865252336 83.4171071959116 27.33471292987622 H 0.0 **** 0.06
34491 C 108.54382852136331 63.66180450829794 29.1044307981363 C 0.0 **** -0.24
34492 H 107.67324873158583 64.3182963946243 29.111231278754524 H 0.0 **** 0.06
34493 H 108.56949334400076 63.102758165030316 28.16915786575457 H 0.0 **** 0.06
34494 H 108.4803249231525 62.96660705958855 29.94136911600767 H 0.0 **** 0.06
34495 H 109.45091452175325 64.2596276736615 29.196433236178862 H 0.0 **** 0.06
34496 C 11.40261011677579 68.5663197992373 3.4428602755243674 C 0.0 **** -0.24
34497 H 10.964917302509363 69.15600253519295 4.248324262812972 H 0.0 **** 0.06
34498 H 11.06136545748521 68.95346451969775 2.482934239370394 H 0.0 **** 0.06
34499 H 11.09552601383595 67.52588812462369 3.546543530332414 H 0.0 **** 0.06
34500 H 12.490385829458589 68.63128736849865 3.4956552051346392 H 0.0 **** 0.06
34501 C 82.29121838130811 93.52284338685439 14.537076714699708 C 0.0 **** -0.24
34502 H 81.98155500227114 93.05826458291824 15.473591066673066 H 0.0 **** 0.06
34503 H 83.34178826447612 93.8098702732658 14.604066232626906 H 0.0 **** 0.06
34504 H 81.68368206882258 94.40917081730416 14.35374289052487 H 0.0 **** 0.06
34505 H 82.1589386255437 92.81452347096217 13.719052299238427 H 0.0 **** 0.06
34506 C 11.178930452778218 48.290309608201426 21.13980607335341 C 0.0 **** -0.24
34507 H 10.888273747690846 49.102006494680865 20.47259333893759 H 0.0 **** 0.06
34508 H 11.230482437544026 47.358333403232706 20.576657134549905 H 0.0 **** 0.06
34509 H 10.442151004616449 48.194398745042264 21.936634819792477 H 0.0 **** 0.06
34510 H 12.155352447892199 48.50908265524359 21.571910689480426 H 0.0 **** 0.06
34511 C 28.513168518195727 90.47531188846062 91.44639164328854 C 0.0 **** -0.24
34512 H 29.358003554645734 90.56341906205967 92.12870227029768 H 0.0 **** 0.06
34513 H 28.861448399281244 90.10827702803624 90.48077033013632 H 0.0 **** 0.06
34514 H 28.04776508542247 91.45234249834277 91.31723753420405 H 0.0 **** 0.06
34515 H 27.784098294407727 89.77730696246863 91.85923636079158 H 0.0 **** 0.06
34516 C 7.908259165403138 24.931565209386008 85.91327923851449 C 0.0 **** -0.24
34517 H 7.063664379465536 24.442514839548096 85.42895673316255 H 0.0 **** 0.06
34518 H 8.839365811209518 24.52202908758079 85.5190665303021 H 0.0 **** 0.06
34519 H 7.860800666382602 24.75785975581158 86.98803597294133 H 0.0 **** 0.06
34520 H 7.870031892438931 26.00360759556156 85.71593726453287 H 0.0 **** 0.06
34521 C 56.33437498654399 55.4789330689415 51.63449489740432 C 0.0 **** -0.24
34522 H 57.11335548814952 56.16676723848286 51.963372530734546 H 0.0 **** 0.06
34523 H 55.434269912667276 56.0415131387814 51.3835854006023 H 0.0 **** 0.06
34524 H 56.11039614619011 54.774408473400854 52.43549273734203 H 0.0 **** 0.06
34525 H 56.67812733871236 54.933435336041526 50.755674377315245 H 0.0 **** 0.06
34526 C 13.773727265153251 32.7475877327505 59.24823791274701 C 0.0 **** -0.24
34527 H 13.049388974386336 33.516411035188185 58.977166333318756 H 0.0 **** 0.06
34528 H 13.291830732051384 32.004865036285935 59.88540727329846 H 0.0 **** 0.06
34529 H 14.603821081116493 33.20458095585849 59.78644733758073 H 0.0 **** 0.06
34530 H 14.1467436504302 32.26525071641265 58.34474594077492 H 0.0 **** 0.06
34531 C 77.36270000219861 43.96044823928601 70.14373770862562 C 0.0 **** -0.24
34532 H 78.17654264041965 44.600600701446574 69.80378487735916 H 0.0 **** 0.06
34533 H 77.6072326537859 42.91910746820819 69.93290323051926 H 0.0 **** 0.06
34534 H 76.44484310551275 44.231661802125885 69.62137678848762 H 0.0 **** 0.06
34535 H 77.22165654478954 44.091725284721385 71.21705457969978 H 0.0 **** 0.06
34536 C 28.529755143249673 94.52992507532616 93.8584832564645 C 0.0 **** -0.24
34537 H 27.65079981950356 93.9923907806185 94.21505501343549 H 0.0 **** 0.06
34538 H 29.24180310093081 93.82181658488793 93.43584395855248 H 0.0 **** 0.06
34539 H 28.993868025222582 95.05808428816215 94.6918169737296 H 0.0 **** 0.06
34540 H 28.231376900694812 95.24750970423958 93.09431790879168 H 0.0 **** 0.06
34541 C 111.48068187658134 19.441353960378393 71.61535009627153 C 0.0 **** -0.24
34542 H 112.33925541971996 18.771242100391134 71.65590273290042 H 0.0 **** 0.06
34543 H 111.10078434054043 19.60575047775984 72.6246328726071 H 0.0 **** 0.06
34544 H 110.69911992934772 18.99324037764282 71.00178257324382 H 0.0 **** 0.06
34545 H 111.78252683224122 20.394245053084347 71.18010053605519 H 0.0 **** 0.06
34546 C 72.52774731733885 88.82936602843589 48.88583620653161 C 0.0 **** -0.24
34547 H 71.71909900585962 88.20921485750227 49.27209437816154 H 0.0 **** 0.06
34548 H 73.11805545797921 88.25283542420695 48.17257130933744 H 0.0 **** 0.06
34549 H 73.16485702839333 89.15027690565415 49.71008277173611 H 0.0 **** 0.06
34550 H 72.10922503988857 89.70366765955177 48.387713026491895 H 0.0 **** 0.06
34551 C 70.29211029758812 21.91611871516173 14.04183902825281 C 0.0 **** -0.24
34552 H 70.0971778613451 22.757757884950024 13.376951189949864 H 0.0 **** 0.06
34553 H 69.59963790198145 21.95017958382121 14.883056489281955 H 0.0 **** 0.06
34554 H 71.31587242281017 21.97439234706468 14.40995204839254 H 0.0 **** 0.06
34555 H 70.153964475451 20.983197884676514 13.495230002335461 H 0.0 **** 0.06
34556 C 89.42369665497677 81.35626015922705 2.635261051654652 C 0.0 **** -0.24
34557 H 88.62773608978748 82.09595344714188 2.719258453880059 H 0.0 **** 0.06
34558 H 89.7884717469941 81.33115069407694 1.6088359144862068 H 0.0 **** 0.06
34559 H 89.03645960920741 80.3737447910552 2.9071103668145213 H 0.0 **** 0.06
34560 H 90.24043115411325 81.6232671941876 3.305295319094853 H 0.0 **** 0.06
34561 C 2.2508051363029296 105.24996835068069 9.00405447470773 C 0.0 **** -0.24
34562 H 2.3767132239539563 106.33209379354557 8.95922492530751 H 0.0 **** 0.06
34563 H 3.2050048211428077 104.78382411486956 9.250429190382178 H 0.0 **** 0.06
34564 H 1.9047978126045848 104.88453948753599 8.03737013013459 H 0.0 **** 0.06
34565 H 1.5163322439627507 105.00245052214407 9.770479592666689 H 0.0 **** 0.06
34566 C 114.43115824702787 21.960892681009227 35.84737282909768 C 0.0 **** -0.24
34567 H 113.9725548102001 21.23240598088674 35.178923156182094 H 0.0 **** 0.06
34568 H 114.33179921053224 22.95837435344967 35.4192092342262 H 0.0 **** 0.06
34569 H 115.48770314710322 21.723655534679438 35.974279917066724 H 0.0 **** 0.06
34570 H 113.93304951167053 21.930320827879825 36.81647138984073 H 0.0 **** 0.06
34571 C 26.41159986216757 76.11897354065587 105.53440431796182 C 0.0 **** -0.24
34572 H 26.82764370804471 77.03951951994557 105.12507122547129 H 0.0 **** 0.06
34573 H 26.03984170613259 75.49523555853477 104.72086831635306 H 0.0 **** 0.06
34574 H 25.59156774261885 76.3600374479677 106.21026483405191 H 0.0 **** 0.06
34575 H 27.186924134097715 75.58077034499723 106.080104406358 H 0.0 **** 0.06
34576 C 16.488267459512464 11.07737861320632 44.26618582072169 C 0.0 **** -0.24
34577 H 16.904440251526747 12.080851422240187 44.17205002946645 H 0.0 **** 0.06
34578 H 15.47421560978814 11.140412578105042 44.66124346802465 H 0.0 **** 0.06
34579 H 17.106793316642307 10.489928100477727 44.94412134571505 H 0.0 **** 0.06
34580 H 16.468387011455388 10.599082852187863 43.286414951226135 H 0.0 **** 0.06
34581 C 33.81506503330249 32.97662297763162 10.511755125863374 C 0.0 **** -0.24
34582 H 32.99142129749832 33.299553902771066 9.875477241842134 H 0.0 **** 0.06
34583 H 34.45744979066441 32.29438646441099 9.955656137203619 H 0.0 **** 0.06
34584 H 33.41719734951471 32.467634412586676 11.389723757200386 H 0.0 **** 0.06
34585 H 34.39236955709967 33.84568430881049 10.82646582640541 H 0.0 **** 0.06
34586 C 19.929840541979857 62.93310708913601 71.15763992238368 C 0.0 **** -0.24
34587 H 20.266993244223578 61.965022055537624 71.52914555266068 H 0.0 **** 0.06
34588 H 20.245732483330134 63.716024699600474 71.84846144129762 H 0.0 **** 0.06
34589 H 18.84351098787844 62.93327244197487 71.07959552762301 H 0.0 **** 0.06
34590 H 20.365637877259967 63.11626411517377 70.1754270341689 H 0.0 **** 0.06
34591 C 104.03356898382302 98.8993012493388 13.518873726494952 C 0.0 **** -0.24
34592 H 103.30365404588335 99.25630230331743 12.7925030354099 H 0.0 **** 0.06
34593 H 104.93001359149042 98.56202894846393 12.997912629830854 H 0.0 **** 0.06
34594 H 103.60763671395799 98.07082321616673 14.085058175419089 H 0.0 **** 0.06
34595 H 104.29220265656525 99.70994883033023 14.200918558782742 H 0.0 **** 0.06
34596 C 88.31982773929798 27.806707116265358 93.28256688026426 C 0.0 **** -0.24
34597 H 89.25981801335902 27.30210362337087 93.05786352142638 H 0.0 **** 0.06
34598 H 88.01696592659977 28.40911447176188 92.42528095930345 H 0.0 **** 0.06
34599 H 88.45403608180109 28.45194115170065 94.15103228129652 H 0.0 **** 0.06
34600 H 87.55056763053165 27.06436836753062 93.49653664911295 H 0.0 **** 0.06
34601 C 96.29463727416251 74.00683504835192 15.771387905348433 C 0.0 **** -0.24
34602 H 96.53326441778373 74.78719766703139 15.048522596500906 H 0.0 **** 0.06
34603 H 95.27370211458384 74.1423527892967 16.127552577503977 H 0.0 **** 0.06
34604 H 96.98563924615462 74.0685365981162 16.612163240408417 H 0.0 **** 0.06
34605 H 96.38810143957619 73.0306773860413 15.29579184097389 H 0.0 **** 0.06
34606 C 100.54183497984997 112.43266900019614 90.6101418141674 C 0.0 **** -0.24
34607 H 100.73503288238257 111.97217926555766 89.64055385022897 H 0.0 **** 0.06
34608 H 100.28436554046968 111.65840393603662 91.33407148270061 H 0.0 **** 0.06
34609 H 99.71479661927546 113.13657318120994 90.51998422818119 H 0.0 **** 0.06
34610 H 101.43399769403575 112.96075659519857 90.94515836388649 H 0.0 **** 0.06
34611 C 101.89922236410752 78.75922238313075 110.84318741011347 C 0.0 **** -0.24
34612 H 102.11981255542847 78.80053391840883 111.91021240355913 H 0.0 **** 0.06
34613 H 102.28851521161724 79.65502239936987 110.35770675377707 H 0.0 **** 0.06
34614 H 100.82081403315888 78.70536499391437 110.69678805239407 H 0.0 **** 0.06
34615 H 102.36910665877664 77.87708929447325 110.40974438673132 H 0.0 **** 0.06
34616 C 23.631269856990485 31.503138697181697 77.77454159147999 C 0.0 **** -0.24
34617 H 24.713374722283163 31.631237174048096 77.79651409574956 H 0.0 **** 0.06
34618 H 23.15318659526747 32.36997865235671 78.22994450050703 H 0.0 **** 0.06
34619 H 23.361067625736126 30.60419061210723 78.3286923521035 H 0.0 **** 0.06
34620 H 23.29881122351489 31.40531704577799 76.74106728093221 H 0.0 **** 0.06
34621 C 75.59337993528897 42.49526850539188 111.9094857710748 C 0.0 **** -0.24
34622 H 75.79007519185674 43.371796137667324 111.2928584931437 H 0.0 **** 0.06
34623 H 75.55775521771528 42.78846118821411 112.95909281285518 H 0.0 **** 0.06
34624 H 76.38760272426705 41.76269082950924 111.76323899737706 H 0.0 **** 0.06
34625 H 74.63761814890978 42.05655345124717 111.6221975943242 H 0.0 **** 0.06
34626 C 5.0039196246879385 114.47695866577203 60.57389746629004 C 0.0 **** -0.24
34627 H 3.924182900852145 114.43510101260527 60.721042208256655 H 0.0 **** 0.06
34628 H 5.45777843783037 115.05289481655161 61.38048019777178 H 0.0 **** 0.06
34629 H 5.222547266328689 114.95378801662598 59.61830251929401 H 0.0 **** 0.06
34630 H 5.4094999527570735 113.46460909542832 60.576129666297696 H 0.0 **** 0.06
34631 C 43.564272284943684 112.7164144268486 8.352054652569095 C 0.0 **** -0.24
34632 H 43.54403755191345 111.76695239828888 8.886416269957738 H 0.0 **** 0.06
34633 H 44.55851031234204 112.878552282198 7.936987228410015 H 0.0 **** 0.06
34634 H 43.32087184231591 113.5253504700909 9.040854090451813 H 0.0 **** 0.06
34635 H 42.83208260061656 112.69372345371943 7.545108971410507 H 0.0 **** 0.06
34636 C 26.015311354784416 46.78654499814161 66.69538196785277 C 0.0 **** -0.24
34637 H 25.489348700974546 45.865906136127705 66.44148755858856 H 0.0 **** 0.06
34638 H 25.56358175331988 47.23024823916137 67.58319378726452 H 0.0 **** 0.06
34639 H 25.94503688200237 47.486073600097484 65.86282917111811 H 0.0 **** 0.06
34640 H 27.0632594671831 46.562988487695804 66.8942844170553 H 0.0 **** 0.06
34641 C 99.36125028417669 35.654213640843636 90.69215713739186 C 0.0 **** -0.24
34642 H 99.75270968610312 34.63778677231883 90.64437686460104 H 0.0 **** 0.06
34643 H 98.281543277071 35.63413429991269 90.54380428574785 H 0.0 **** 0.06
34644 H 99.82455327681905 36.25829349122753 89.911275642948 H 0.0 **** 0.06
34645 H 99.58715563609798 36.08563924015402 91.66741797464684 H 0.0 **** 0.06
34646 C 27.553613206427485 48.7411834884314 77.11695135770685 C 0.0 **** -0.24
34647 H 27.951701434878572 48.7275247671881 76.10214586425948 H 0.0 **** 0.06
34648 H 26.590623925790965 48.230409201875176 77.135478815249 H 0.0 **** 0.06
34649 H 27.423061647395144 49.77360183954357 77.44214612656833 H 0.0 **** 0.06
34650 H 28.247564235193323 48.233728431197235 77.78646480403958 H 0.0 **** 0.06
34651 C 70.67567456246664 16.15504535036223 99.09937082566464 C 0.0 **** -0.24
34652 H 71.17959217888674 15.960154757258408 98.15320614541201 H 0.0 **** 0.06
34653 H 69.7528056655097 16.70496761376492 98.91362773019449 H 0.0 **** 0.06
34654 H 71.3276359396854 16.74677887890985 99.74282698190109 H 0.0 **** 0.06
34655 H 70.44372428900724 15.209106983867883 99.58826203484344 H 0.0 **** 0.06
34656 C 82.23473175103453 79.65291997318513 14.837871994440462 C 0.0 **** -0.24
34657 H 82.07799068518642 78.7416603960121 15.414987391918004 H 0.0 **** 0.06
34658 H 81.2977023867947 79.94893872116558 14.365250697788582 H 0.0 **** 0.06
34659 H 82.98687982447368 79.47086823146742 14.069701796032405 H 0.0 **** 0.06
34660 H 82.576035940901 80.44867573048316 15.499955212846885 H 0.0 **** 0.06
34661 C 55.81667375189858 68.05750431139401 104.90984859898566 C 0.0 **** -0.24
34662 H 55.29217753153233 68.20868280468784 103.9662137329409 H 0.0 **** 0.06
34663 H 55.310226297455415 67.28337923969482 105.48647700932804 H 0.0 **** 0.06
34664 H 55.82132065722652 68.98928343580471 105.47568254303982 H 0.0 **** 0.06
34665 H 56.842817677279356 67.74785294307807 104.70871752277915 H 0.0 **** 0.06
34666 C 10.987624656234857 69.31119774804131 50.170270098061906 C 0.0 **** -0.24
34667 H 12.031808267833924 69.47666591542384 50.43429811916264 H 0.0 **** 0.06
34668 H 10.799869514103108 68.24021718549591 50.08646869870763 H 0.0 **** 0.06
34669 H 10.772792340203068 69.79359488635299 49.21629940162098 H 0.0 **** 0.06
34670 H 10.345362414450307 69.73292608440511 50.94321858993626 H 0.0 **** 0.06
34671 C 104.98175779276042 9.229351334791943 19.34236776118783 C 0.0 **** -0.24
34672 H 105.36518030116554 8.826344476594699 20.280130342851777 H 0.0 **** 0.06
34673 H 105.5534212227704 10.11651263625106 19.068260547274605 H 0.0 **** 0.06
34674 H 103.93232661222609 9.496620937826833 19.464556536149928 H 0.0 **** 0.06
34675 H 105.07729380888321 8.478519289021051 18.558580786662162 H 0.0 **** 0.06
34676 C 97.2650718485962 76.7398933147254 65.27197848908253 C 0.0 **** -0.24
34677 H 96.25360187256405 77.07405438791037 65.50199545227099 H 0.0 **** 0.06
34678 H 97.2702194991208 75.6569145021538 65.14438374272726 H 0.0 **** 0.06
34679 H 97.93252414570387 77.01292276423519 66.08911023802733 H 0.0 **** 0.06
34680 H 97.60375088650679 77.21579556771576 64.35144953966733 H 0.0 **** 0.06
34681 C 89.65259983035048 103.24839094143621 27.04634496805842 C 0.0 **** -0.24
34682 H 90.25003088379731 104.15406625102668 26.93404433224846 H 0.0 **** 0.06
34683 H 88.6519970079379 103.51423448537926 27.38793418608607 H 0.0 **** 0.06
34684 H 90.12398302922509 102.59119261338847 27.77733486083531 H 0.0 **** 0.06
34685 H 89.58643467823117 102.736440418683 26.08650968010508 H 0.0 **** 0.06
34686 C 59.42598329785332 35.66446357900318 83.13678045069003 C 0.0 **** -0.24
34687 H 59.101448785945166 36.02226468754664 82.15906896461354 H 0.0 **** 0.06
34688 H 60.11211138058178 34.82734483018571 83.00811647262492 H 0.0 **** 0.06
34689 H 58.55760393865495 35.337243169005276 83.7095580013372 H 0.0 **** 0.06
34690 H 59.930026583107434 36.47105505943318 83.6691633150977 H 0.0 **** 0.06
34691 C 105.29877553046506 61.82915187940572 23.206483858740157 C 0.0 **** -0.24
34692 H 105.53473072991181 61.14726269582639 22.38942678738728 H 0.0 **** 0.06
34693 H 105.44862680276574 62.8570320837193 22.876759998034714 H 0.0 **** 0.06
34694 H 105.95307037841434 61.620939924820895 24.052949446228425 H 0.0 **** 0.06
34695 H 104.26085865263954 61.69087018649149 23.507787094168208 H 0.0 **** 0.06
34696 C 80.7118703196362 33.34549558438374 46.66224236825249 C 0.0 **** -0.24
34697 H 80.7244800715149 33.46931979610942 47.74589296783813 H 0.0 **** 0.06
34698 H 81.72856662330048 33.183510113030394 46.30324328966245 H 0.0 **** 0.06
34699 H 80.30192980765992 34.24313400335346 46.19963563053261 H 0.0 **** 0.06
34700 H 80.09357366555844 32.48704531868913 46.402805934482956 H 0.0 **** 0.06
34701 C 59.756032480840474 39.53223114388821 1.1222490978409496 C 0.0 **** -0.24
34702 H 59.19915890783375 39.72520716194323 0.2051825461082899 H 0.0 **** 0.06
34703 H 60.787408813543436 39.277892051346726 0.8731214393717721 H 0.0 **** 0.06
34704 H 59.29579128530844 38.703572591623136 1.6593812486496233 H 0.0 **** 0.06
34705 H 59.74348548334228 40.42431674819287 1.748703271020105 H 0.0 **** 0.06
34706 C 90.06558882261123 77.0071058175435 36.416727683957134 C 0.0 **** -0.24
34707 H 90.86493306145798 76.69077968392423 35.74601718410801 H 0.0 **** 0.06
34708 H 89.46480296567773 76.14182964144436 36.69924412131516 H 0.0 **** 0.06
34709 H 89.4357904044752 77.73795448995367 35.91121701863298 H 0.0 **** 0.06
34710 H 90.49763953596909 77.45636371521744 37.31075758815422 H 0.0 **** 0.06
34711 C 77.37992452196482 85.06775501780811 62.125543498264165 C 0.0 **** -0.24
34712 H 76.67284356634505 85.37003722969541 62.89779082180672 H 0.0 **** 0.06
34713 H 78.35013650226051 84.86565769202781 62.57997543157836 H 0.0 **** 0.06
34714 H 77.48075209672803 85.86762238680882 61.39270525294751 H 0.0 **** 0.06
34715 H 77.0150663365117 84.16671413469152 61.632164521099014 H 0.0 **** 0.06
34716 C 30.398813452149966 67.58156823614416 81.65150522550391 C 0.0 **** -0.24
34717 H 30.74439993225019 67.6910603042397 80.62402900661323 H 0.0 **** 0.06
34718 H 29.334100521935966 67.80959942172427 81.7031591722779 H 0.0 **** 0.06
34719 H 30.94981255646809 68.26795443208377 82.2947353272024 H 0.0 **** 0.06
34720 H 30.568605488701735 66.55736796479252 81.98447739796643 H 0.0 **** 0.06
34721 C 110.45536150119432 74.87814216820672 86.38984051686447 C 0.0 **** -0.24
34722 H 110.53797130556444 74.13179767403335 87.17993132256578 H 0.0 **** 0.06
34723 H 111.44425764113362 75.27917252041013 86.16472249732053 H 0.0 **** 0.06
34724 H 109.8020566243768 75.68600533687658 86.72122227757882 H 0.0 **** 0.06
34725 H 110.03798667373434 74.4168958332267 85.49510480041664 H 0.0 **** 0.06
34726 C 30.904278073223395 79.97248952326368 31.122840380945547 C 0.0 **** -0.24
34727 H 30.182315755028526 79.18842551736225 30.896592823760102 H 0.0 **** 0.06
34728 H 31.914110166694684 79.57081658855327 31.04129933982574 H 0.0 **** 0.06
34729 H 30.73794694933025 80.33770714917432 32.136348652607865 H 0.0 **** 0.06
34730 H 30.781286780844823 80.79367529193684 30.41555674995118 H 0.0 **** 0.06
34731 C 93.14641702507359 101.34733051017821 75.43835882057795 C 0.0 **** -0.24
34732 H 92.98263144806384 102.42461813793292 75.41851952354159 H 0.0 **** 0.06
34733 H 92.39934302436814 100.85444681526758 74.81522389256361 H 0.0 **** 0.06
34734 H 93.06091544751658 100.98549436096698 76.46346130465204 H 0.0 **** 0.06
34735 H 94.14314264988522 101.12398561050111 75.0567436996048 H 0.0 **** 0.06
34736 C 114.36748000255767 110.53178638243924 76.54613776589443 C 0.0 **** -0.24
34737 H 114.24461897483286 111.4311872804791 75.94263452205664 H 0.0 **** 0.06
34738 H 115.34027749542963 110.08677193875229 76.34017642964125 H 0.0 **** 0.06
34739 H 113.58087660445383 109.81872908905547 76.29862538972702 H 0.0 **** 0.06
34740 H 114.30212627851276 110.79239986415564 77.60273584344154 H 0.0 **** 0.06
34741 C 58.931665390396745 53.51780679512683 100.4732014381103 C 0.0 **** -0.24
34742 H 58.44631422555403 52.764844224508465 101.09325265717504 H 0.0 **** 0.06
34743 H 60.01008457658219 53.35845326553965 100.48492751705987 H 0.0 **** 0.06
34744 H 58.70675008030065 54.51025300297897 100.86479004634185 H 0.0 **** 0.06
34745 H 58.56359096131581 53.43889904790609 99.45106022817012 H 0.0 **** 0.06
34746 C 111.5414686824538 69.91873544433963 100.93464658167986 C 0.0 **** -0.24
34747 H 112.24634538027999 69.32949295712987 100.34767117660164 H 0.0 **** 0.06
34748 H 111.74158493385036 70.98027515553935 100.78375263071717 H 0.0 **** 0.06
34749 H 111.65421162177003 69.67336358123595 101.99087035927067 H 0.0 **** 0.06
34750 H 110.52436728222801 69.6914242346987 100.61508855661617 H 0.0 **** 0.06
34751 C 8.077167554804191 55.450952006140355 35.855953369889306 C 0.0 **** -0.24
34752 H 9.052308121934061 55.63247226571773 36.308005624209045 H 0.0 **** 0.06
34753 H 7.433861394885938 54.94179871577786 36.57316605822854 H 0.0 **** 0.06
34754 H 8.198134221709552 54.82905026256852 34.96943703846705 H 0.0 **** 0.06
34755 H 7.625443014392914 56.402445293758454 35.573279533215924 H 0.0 **** 0.06
34756 C 46.9307547703212 1.9086154818941807 71.08926897665754 C 0.0 **** -0.24
34757 H 45.863150915801064 1.8292375622176262 70.88415163504649 H 0.0 **** 0.06
34758 H 47.14618057568037 2.886119471315043 71.51947308427376 H 0.0 **** 0.06
34759 H 47.48846973766974 1.7884502306787393 70.16016062496738 H 0.0 **** 0.06
34760 H 47.22331394196517 1.1286443886648616 71.79213538090673 H 0.0 **** 0.06
34761 C 17.22138470111058 103.21498354903542 12.598364143581819 C 0.0 **** -0.24
34762 H 16.48224663634636 103.18038436595481 11.79709211263878 H 0.0 **** 0.06
34763 H 17.08671304396603 104.13021913065691 13.17595259182903 H 0.0 **** 0.06
34764 H 18.222765229404132 103.19932745467108 12.16915808740572 H 0.0 **** 0.06
34765 H 17.091170797541707 102.35106167848531 13.24955249056734 H 0.0 **** 0.06
34766 C 45.09525885972212 115.34744989369202 45.89921287627831 C 0.0 **** -0.24
34767 H 45.8921841823294 114.89853635418284 45.30634389431921 H 0.0 **** 0.06
34768 H 44.787183775788634 116.2876920276906 45.4401480328502 H 0.0 **** 0.06
34769 H 45.45719122876392 115.5381242272644 46.90991474556776 H 0.0 **** 0.06
34770 H 44.2455481829746 114.667109749259 45.94015098411094 H 0.0 **** 0.06
34771 C 1.3616927683364395 109.62317657163511 81.851555671027 C 0.0 **** -0.24
34772 H 0.9086082899507346 109.08723987626173 81.0176292532615 H 0.0 **** 0.06
34773 H 0.5834926312213042 110.12757390528185 82.42508151223109 H 0.0 **** 0.06
34774 H 2.067350185303468 110.36025883577263 81.4677844690599 H 0.0 **** 0.06
34775 H 1.8876850565868324 108.91647596151968 82.49384949518449 H 0.0 **** 0.06
34776 C 63.851968452692326 105.33924915800588 32.26968962837566 C 0.0 **** -0.24
34777 H 64.70014296666443 105.16878361264722 31.60589710532804 H 0.0 **** 0.06
34778 H 63.85351858199572 104.5895423776928 33.0614897032724 H 0.0 **** 0.06
34779 H 62.92523523647872 105.26642849503327 31.701453233882603 H 0.0 **** 0.06
34780 H 63.930798578174 106.33342869983093 32.710442234449545 H 0.0 **** 0.06
34781 C 113.8222003380108 49.28475587590333 69.08742555510833 C 0.0 **** -0.24
34782 H 113.75727146973009 48.87930670484852 68.07719081034841 H 0.0 **** 0.06
34783 H 112.81722005814578 49.45700216482291 69.47481284501379 H 0.0 **** 0.06
34784 H 114.36974565719545 50.22725802604276 69.06563532671089 H 0.0 **** 0.06
34785 H 114.34409636572089 48.57645371865374 69.73011715964066 H 0.0 **** 0.06
34786 C 80.36265612991372 62.857020293731914 87.03869825583419 C 0.0 **** -0.24
34787 H 80.93060487595437 63.41357459305039 87.78447001836136 H 0.0 **** 0.06
34788 H 80.02838066221184 61.912566476666875 87.46782044289208 H 0.0 **** 0.06
34789 H 80.99584258952589 62.659534060291115 86.1737652778977 H 0.0 **** 0.06
34790 H 79.49745354556288 63.443755048225675 86.72993494036518 H 0.0 **** 0.06
34791 C 59.774826254609685 20.20340143844473 55.0786884901475 C 0.0 **** -0.24
34792 H 60.67806806228429 20.197326693019164 54.46915156765948 H 0.0 **** 0.06
34793 H 59.571839189745326 21.22047476147864 55.416028303966016 H 0.0 **** 0.06
34794 H 59.91685983272976 19.555869306833557 55.944390294133996 H 0.0 **** 0.06
34795 H 58.93453263687753 19.841405443179895 54.48687478751128 H 0.0 **** 0.06
34796 C 4.749089883482554 89.87206673070352 92.97808419133483 C 0.0 **** -0.24
34797 H 5.18805488550781 89.93834289687564 91.98287208889818 H 0.0 **** 0.06
34798 H 4.860649587033151 90.82946421835308 93.48817684475574 H 0.0 **** 0.06
34799 H 5.258208848296732 89.09437611391365 93.54800189647062 H 0.0 **** 0.06
34800 H 3.690674261180817 89.62664329055002 92.89286301048614 H 0.0 **** 0.06
34801 C 70.9760196632067 98.01706934345734 77.50452457887249 C 0.0 **** -0.24
34802 H 71.37003335964752 98.78734942602512 78.1683504844369 H 0.0 **** 0.06
34803 H 70.94270330045183 97.06479775199526 78.03453858293574 H 0.0 **** 0.06
34804 H 71.62152904538064 97.92494157866108 76.63166719266476 H 0.0 **** 0.06
34805 H 69.97025419427081 98.29059436954 77.1864494070623 H 0.0 **** 0.06
34806 C 69.00269547141525 113.86087179242544 112.17299987665878 C 0.0 **** -0.24
34807 H 69.52050854049668 113.84422151495843 113.13119154238302 H 0.0 **** 0.06
34808 H 68.11982415141216 114.49631911837328 112.24789271838918 H 0.0 **** 0.06
34809 H 68.6996601728963 112.84836123310474 111.9064854555725 H 0.0 **** 0.06
34810 H 69.66977909506039 114.25413261108817 111.40554931554327 H 0.0 **** 0.06
34811 C 18.72038380994786 92.03071268272424 44.841579625294344 C 0.0 **** -0.24
34812 H 18.20833272029779 92.08181620695814 43.88044222348998 H 0.0 **** 0.06
34813 H 17.983706989065325 92.03867694220094 45.6459600670201 H 0.0 **** 0.06
34814 H 19.382698898392306 92.8910189730093 44.94597726784099 H 0.0 **** 0.06
34815 H 19.306138074672873 91.11310881577413 44.89328099038596 H 0.0 **** 0.06
34816 C 19.007045990112502 93.70599335439343 52.05434137591065 C 0.0 **** -0.24
34817 H 19.345799344520465 93.2972973589251 53.00563714218345 H 0.0 **** 0.06
34818 H 19.85474634348482 93.79628514868975 51.37560252384576 H 0.0 **** 0.06
34819 H 18.565556918333527 94.68931209880591 52.21837383726799 H 0.0 **** 0.06
34820 H 18.260762769801648 93.04078695468655 51.61817184712977 H 0.0 **** 0.06
34821 C 62.20597640981719 95.54212023905794 107.78342654443787 C 0.0 **** -0.24
34822 H 62.344043164676144 94.65680254786375 108.40355401667262 H 0.0 **** 0.06
34823 H 61.8166747536148 96.35649319143019 108.39488701869024 H 0.0 **** 0.06
34824 H 61.50172351649996 95.31919871899555 106.98281943829417 H 0.0 **** 0.06
34825 H 63.16329070647942 95.83709552558224 107.35310467175839 H 0.0 **** 0.06
34826 C 77.49870547842323 44.287158289227335 116.24074570176911 C 0.0 **** -0.24
34827 H 78.02127289391314 44.112832324812956 115.29913652844874 H 0.0 **** 0.06
34828 H 78.22514688432835 44.505315705321294 117.02345585356372 H 0.0 **** 0.06
34829 H 76.92998312466057 43.39694046195004 116.50972912169985 H 0.0 **** 0.06
34830 H 76.81946780681892 45.13165067868687 116.1277779722956 H 0.0 **** 0.06
34831 C 2.365990638351917 38.26730831412803 0.6378102548188735 C 0.0 **** -0.24
34832 H 1.5711057617897808 37.69427361682742 0.15991773301794865 H 0.0 **** 0.06
34833 H 2.6525672149450656 39.098505753836406 -0.007492561202468551 H 0.0 **** 0.06
34834 H 3.2283147319579797 37.622994979054766 0.8051941583951248 H 0.0 **** 0.06
34835 H 2.010583528359689 38.654393603161566 1.5931849332411048 H 0.0 **** 0.06
34836 C 18.290816608803652 18.956408516096374 89.22606776322962 C 0.0 **** -0.24
34837 H 17.34650029693333 19.072249719555742 89.75693066279408 H 0.0 **** 0.06
34838 H 18.944367221539324 18.289235548903815 89.7886473851093 H 0.0 **** 0.06
34839 H 18.76959311450659 19.930211714147113 89.12052447053435 H 0.0 **** 0.06
34840 H 18.104446857202106 18.5343529990766 88.23853476602989 H 0.0 **** 0.06
34841 C 35.00343717683876 94.54856936489003 68.14442460615385 C 0.0 **** -0.24
34842 H 34.90385956193194 94.04384031322957 69.10488949025054 H 0.0 **** 0.06
34843 H 35.53791309214074 95.48982962063559 68.28265899236294 H 0.0 **** 0.06
34844 H 34.01323284303288 94.7505451254356 67.7357827758795 H 0.0 **** 0.06
34845 H 35.55968070402116 93.91261843892272 67.45562744158022 H 0.0 **** 0.06
34846 C 24.12137719568259 77.88421734998576 13.05635181468412 C 0.0 **** -0.24
34847 H 24.519077201965104 77.71515145914708 14.056414474479766 H 0.0 **** 0.06
34848 H 23.052332733925233 78.0912049103664 13.12084333251613 H 0.0 **** 0.06
34849 H 24.283193828587102 76.99480909730732 12.446281016315965 H 0.0 **** 0.06
34850 H 24.62905563084697 78.73445975805436 12.60204755793248 H 0.0 **** 0.06
34851 C 83.41433575493056 1.1649899471536855 75.1905941803561 C 0.0 **** -0.24
34852 H 82.48289884614348 0.6635290487314336 74.9287312601331 H 0.0 **** 0.06
34853 H 83.50261183315104 1.2243108553997928 76.27611360430865 H 0.0 **** 0.06
34854 H 83.4166276244521 2.1699629856417033 74.77025048636978 H 0.0 **** 0.06
34855 H 84.25640834598349 0.6009477306361646 74.78758030405652 H 0.0 **** 0.06
34856 C 97.50606310013461 27.68764274883209 8.885333592834058 C 0.0 **** -0.24
34857 H 96.73522056989009 27.67319610929995 9.655403728300286 H 0.0 **** 0.06
34858 H 98.02224293164443 28.64775697989443 8.906618461301406 H 0.0 **** 0.06
34859 H 97.0450467425722 27.544906588926878 7.908366740939769 H 0.0 **** 0.06
34860 H 98.22068245645471 26.886628419996903 9.070495948746142 H 0.0 **** 0.06
34861 C 6.9287053128321165 14.928927917772796 91.9210906590269 C 0.0 **** -0.24
34862 H 7.939490099499878 14.869019662000994 92.32288040550083 H 0.0 **** 0.06
34863 H 6.975494391970402 15.058764381094733 90.83897405180522 H 0.0 **** 0.06
34864 H 6.410235703727954 15.77730048763263 92.3666489070988 H 0.0 **** 0.06
34865 H 6.3899780729896065 14.010549053760883 92.15449843487573 H 0.0 **** 0.06
34866 C 54.11040660311204 57.680596232443314 21.905996951785596 C 0.0 **** -0.24
34867 H 54.22841048171634 57.23443483629665 22.89341735446095 H 0.0 **** 0.06
34868 H 53.82549370775729 58.727549562500776 22.011122332587576 H 0.0 **** 0.06
34869 H 53.33497810788208 57.146432724114966 21.356088765235967 H 0.0 **** 0.06
34870 H 55.05287737901199 57.61298694768936 21.362349269656846 H 0.0 **** 0.06
34871 C 98.66848032895652 50.132711189758936 41.13958602235323 C 0.0 **** -0.24
34872 H 99.06972149109382 49.485687000452145 41.91905516321171 H 0.0 **** 0.06
34873 H 97.63126294994734 49.86259895080897 40.94220965302972 H 0.0 **** 0.06
34874 H 99.25562118521017 50.01188808163161 40.22879877987728 H 0.0 **** 0.06
34875 H 98.71839584601076 51.17131143102128 41.46763020456439 H 0.0 **** 0.06
34876 C 20.615974373075474 115.90560231798085 80.96970862385874 C 0.0 **** -0.24
34877 H 20.0803594674897 115.41454665271029 81.7826323693595 H 0.0 **** 0.06
34878 H 19.901068915819707 116.25785290636398 80.22499876637346 H 0.0 **** 0.06
34879 H 21.303819775189865 115.19881715736832 80.50800279328428 H 0.0 **** 0.06
34880 H 21.176074020424053 116.75342404220937 81.36474621860444 H 0.0 **** 0.06
34881 C 42.94673023708896 99.17522820897881 51.30835388531514 C 0.0 **** -0.24
34882 H 41.909916077242485 99.29180469406765 51.6214452443819 H 0.0 **** 0.06
34883 H 43.44316014938852 100.14533915625668 51.32493826885754 H 0.0 **** 0.06
34884 H 42.97730234208126 98.76817154103881 50.296932970065555 H 0.0 **** 0.06
34885 H 43.45702556206237 98.49341868344302 51.98995825657249 H 0.0 **** 0.06
34886 C 79.36918597192374 13.670126104596363 40.08845402072746 C 0.0 **** -0.24
34887 H 79.19153748314247 13.805917026315473 39.02186563871746 H 0.0 **** 0.06
34888 H 80.25873023574655 13.055668620551128 40.23295683258487 H 0.0 **** 0.06
34889 H 78.50885286387432 13.175634710352714 40.54024070747827 H 0.0 **** 0.06
34890 H 79.51757870649402 14.641627347973056 40.55925637858316 H 0.0 **** 0.06
34891 C 52.25273803001322 52.48705950719148 74.66513651460755 C 0.0 **** -0.24
34892 H 51.61795915094052 52.35458519971356 75.54051370244574 H 0.0 **** 0.06
34893 H 52.413000859411035 51.52190881310874 74.18397233858451 H 0.0 **** 0.06
34894 H 53.21147807216019 52.90455491421071 74.9713946315166 H 0.0 **** 0.06
34895 H 51.767994443490636 53.166344928205426 73.96453328316301 H 0.0 **** 0.06
34896 C 92.71231415307003 71.19088199216202 116.13941863440998 C 0.0 **** -0.24
34897 H 92.74050831031889 71.34409220694664 115.06110716630326 H 0.0 **** 0.06
34898 H 91.6846154463459 71.27576526486837 116.4930288454297 H 0.0 **** 0.06
34899 H 93.32833684391872 71.94507460490505 116.62943958337691 H 0.0 **** 0.06
34900 H 93.09739284047825 70.19877258043093 116.37565432327591 H 0.0 **** 0.06
34901 C 112.94056436044457 7.880485785226313 33.560715861230506 C 0.0 **** -0.24
34902 H 112.98884381978507 7.439893265528767 32.56478498816175 H 0.0 **** 0.06
34903 H 112.4853079718973 7.170197485703071 34.25093765288347 H 0.0 **** 0.06
34904 H 112.3403678493884 8.789829579859799 33.526205139231884 H 0.0 **** 0.06
34905 H 113.94790442627595 8.12254587798546 33.898548410174335 H 0.0 **** 0.06
34906 C 42.42853971262144 40.273280924008674 20.28941896853277 C 0.0 **** -0.24
34907 H 42.81351939759449 41.29242723678087 20.249438701465976 H 0.0 **** 0.06
34908 H 41.95749679020517 40.10122368785778 21.25748398128553 H 0.0 **** 0.06
34909 H 43.2490830536787 39.56890506968762 20.15398917958825 H 0.0 **** 0.06
34910 H 41.69337065779786 40.132429707782535 19.496522119645135 H 0.0 **** 0.06
34911 C 28.831757150153095 22.10905825994452 5.271092920130954 C 0.0 **** -0.24
34912 H 29.459904410589218 21.348623495036826 4.806541540962883 H 0.0 **** 0.06
34913 H 27.922880299589508 21.64614156463437 5.653309968967633 H 0.0 **** 0.06
34914 H 28.570561573203577 22.86552452665689 4.530747290934798 H 0.0 **** 0.06
34915 H 29.376422706556497 22.576727663249667 6.091348814059273 H 0.0 **** 0.06
34916 C 109.88843812581453 30.184776837800058 16.28798794237045 C 0.0 **** -0.24
34917 H 109.86974189059927 30.403658373425145 17.35563596071782 H 0.0 **** 0.06
34918 H 109.96224495814133 31.117328697358815 15.727494755259784 H 0.0 **** 0.06
34919 H 108.9730008428283 29.663518464480262 16.007072855266415 H 0.0 **** 0.06
34920 H 110.74915114646308 29.55538808378907 16.06126592616124 H 0.0 **** 0.06
34921 C 2.232067759293484 85.95990071867297 28.973911965341642 C 0.0 **** -0.24
34922 H 2.475686882688107 87.0164019334479 29.08302123760194 H 0.0 **** 0.06
34923 H 2.718246025250309 85.5647164048732 28.081305621080787 H 0.0 **** 0.06
34924 H 1.1521299954126771 85.8428128766437 28.882021557566247 H 0.0 **** 0.06
34925 H 2.5832437032197237 85.41353174112035 29.84988994717571 H 0.0 **** 0.06
34926 C 115.01403617089414 108.51919601763865 82.72761108324352 C 0.0 **** -0.24
34927 H 115.89337183350705 107.92234013926719 82.97043578815018 H 0.0 **** 0.06
34928 H 115.04488244396902 109.4539013722652 83.28944958282614 H 0.0 **** 0.06
34929 H 114.114284582072 107.9649108450372 82.99255244638294 H 0.0 **** 0.06
34930 H 115.00670692382761 108.73620134795618 81.66002133815653 H 0.0 **** 0.06
34931 C 77.92940008530252 62.5412119855867 2.208874741322406 C 0.0 **** -0.24
34932 H 77.74298083777245 61.95990323557123 1.305995484346143 H 0.0 **** 0.06
34933 H 78.98608898342792 62.47832546765386 2.4700717215199344 H 0.0 **** 0.06
34934 H 77.32840634859954 62.14446863952929 3.027155998440886 H 0.0 **** 0.06
34935 H 77.65912674095836 63.58283119989119 2.0315395328743815 H 0.0 **** 0.06
34936 C 94.04045489050208 87.6888907882651 83.9376863085082 C 0.0 **** -0.24
34937 H 94.72825029077228 87.50715775882031 83.11221339957291 H 0.0 **** 0.06
34938 H 93.77638663338325 86.73993346799136 84.40566279509821 H 0.0 **** 0.06
34939 H 93.13874997715038 88.1719998362176 83.55997752922755 H 0.0 **** 0.06
34940 H 94.51873880222936 88.33558095831717 84.67255651806931 H 0.0 **** 0.06
34941 C 91.42288898415563 1.5771181483911079 5.036649793198649 C 0.0 **** -0.24
34942 H 90.68122634159946 1.1745169263430597 4.346644898328748 H 0.0 **** 0.06
34943 H 92.30301921304269 1.8963515187267888 4.477353026470382 H 0.0 **** 0.06
34944 H 91.70718860441863 0.8071307185141308 5.754075794052881 H 0.0 **** 0.06
34945 H 90.99986270139362 2.429208149236459 5.566700013056732 H 0.0 **** 0.06
34946 C 88.7410214973462 87.13596464113658 16.701611964751947 C 0.0 **** -0.24
34947 H 88.02065705524026 87.95263804098954 16.742275963507183 H 0.0 **** 0.06
34948 H 89.65248067222274 87.47894718769587 16.21063824978785 H 0.0 **** 0.06
34949 H 88.31637475982876 86.3044242803548 16.140710330897548 H 0.0 **** 0.06
34950 H 88.97604499372582 86.80877579611126 17.714548485104075 H 0.0 **** 0.06
34951 C 26.46033388115314 93.58827593093886 34.97927400238751 C 0.0 **** -0.24
34952 H 27.037039329717445 92.66386360304679 34.99419362809823 H 0.0 **** 0.06
34953 H 27.13865894369868 94.4385676290697 34.91173824534741 H 0.0 **** 0.06
34954 H 25.87234157148709 93.6640806261571 35.89452518046315 H 0.0 **** 0.06
34955 H 25.79297143435482 93.58618810442059 34.117494467187385 H 0.0 **** 0.06
34956 C 14.958343149078644 32.08781176866544 62.751340991696686 C 0.0 **** -0.24
34957 H 15.34932717187965 31.582640546180436 61.86873834367366 H 0.0 **** 0.06
34958 H 13.963555346407674 32.47885463194753 62.53457209752198 H 0.0 **** 0.06
34959 H 15.62043482322565 32.9096933782956 63.02257550389536 H 0.0 **** 0.06
34960 H 14.898740403577733 31.38111181396549 63.57907564311788 H 0.0 **** 0.06
34961 C 17.109991288751132 5.987292443060596 56.310752378926345 C 0.0 **** -0.24
34962 H 17.91326107911115 5.648214895070623 56.965261396727406 H 0.0 **** 0.06
34963 H 17.51997318027429 6.229337818721945 55.329149621875466 H 0.0 **** 0.06
34964 H 16.64290289782656 6.8745483138885675 56.739320315073265 H 0.0 **** 0.06
34965 H 16.36615341367437 5.197725269273178 56.20887598235512 H 0.0 **** 0.06
34966 C 32.43354511426263 60.845426008133245 12.491657492739144 C 0.0 **** -0.24
34967 H 31.97171392036428 60.059294372842146 11.893423401542055 H 0.0 **** 0.06
34968 H 32.674422372342434 61.69485748713964 11.851468966261624 H 0.0 **** 0.06
34969 H 33.34725074634639 60.46468881450596 12.948747429348444 H 0.0 **** 0.06
34970 H 31.741269246521398 61.162080974282844 13.271912408076574 H 0.0 **** 0.06
34971 C 99.2462757718499 35.25876457709734 94.84734142218878 C 0.0 **** -0.24
34972 H 98.79961376113573 36.186279440796454 95.20669534088299 H 0.0 **** 0.06
34973 H 98.87936364197861 35.04432655150691 93.84320257029731 H 0.0 **** 0.06
34974 H 98.97394296527179 34.44209639664899 95.51534355276783 H 0.0 **** 0.06
34975 H 100.33096422750853 35.36304710519323 94.82431827841498 H 0.0 **** 0.06
34976 C 42.305254356833984 0.25054403642130474 99.56924538658453 C 0.0 **** -0.24
34977 H 41.550795247117435 -0.49589483357989916 99.81548585280589 H 0.0 **** 0.06
34978 H 43.08043323602044 0.25004001060954906 100.33590075181272 H 0.0 **** 0.06
34979 H 41.84014168656063 1.2358497447637973 99.52335532555699 H 0.0 **** 0.06
34980 H 42.749202956221666 0.01352000766171102 98.60234145117099 H 0.0 **** 0.06
34981 C 69.52801818743973 82.12970880044622 40.68620563521867 C 0.0 **** -0.24
34982 H 69.78785603703878 82.09337596598274 41.74401666029351 H 0.0 **** 0.06
34983 H 68.46047560848649 82.32207974623691 40.5811475430784 H 0.0 **** 0.06
34984 H 69.7738921339515 81.17620862731096 40.219039312039115 H 0.0 **** 0.06
34985 H 70.09093447908882 82.92721696634968 40.20152437685593 H 0.0 **** 0.06
34986 C 109.90114460920995 49.150637204730856 77.72882379427776 C 0.0 **** -0.24
34987 H 110.05210530781818 49.75129359373716 76.8314672446856 H 0.0 **** 0.06
34988 H 109.94050746845978 48.09324842254506 77.46899608694241 H 0.0 **** 0.06
34989 H 108.92851259795357 49.383598216353505 78.16204209359412 H 0.0 **** 0.06
34990 H 110.68461536644256 49.37751387289944 78.45270678561013 H 0.0 **** 0.06
34991 C 104.70419039551686 48.91009977524921 95.42833304628073 C 0.0 **** -0.24
34992 H 104.5962099174487 48.588200986335295 96.4642642073402 H 0.0 **** 0.06
34993 H 105.60352626188788 49.51896733557517 95.3296957026401 H 0.0 **** 0.06
34994 H 103.83340447086957 49.49629920492011 95.13679917692991 H 0.0 **** 0.06
34995 H 104.78480647487933 48.034129143000236 94.78343417185167 H 0.0 **** 0.06
34996 C 107.05749294866308 60.577679843712524 112.79096792128773 C 0.0 **** -0.24
34997 H 107.29293884032916 59.93593168488943 111.94212254003604 H 0.0 **** 0.06
34998 H 106.93399921797214 61.60482264370666 112.44621004700521 H 0.0 **** 0.06
34999 H 107.86788240827198 60.53199340393396 113.51785070724775 H 0.0 **** 0.06
35000 H 106.13224466734533 60.23816201165945 113.25697033421822 H 0.0 **** 0.06
35001 C 57.40008808309926 113.73333666594894 101.99120126078537 C 0.0 **** -0.24
35002 H 57.46603370026463 113.83941090821071 103.07312190612495 H 0.0 **** 0.06
35003 H 58.28359336216198 114.1732912595697 101.52874765550675 H 0.0 **** 0.06
35004 H 56.507477634915574 114.2454505281275 101.63011813979739 H 0.0 **** 0.06
35005 H 57.342096694615634 112.67559243657645 101.73158578458424 H 0.0 **** 0.06
35006 C 55.87764241070886 49.305685180877305 101.75393373150871 C 0.0 **** -0.24
35007 H 54.985878306737845 49.92704369251564 101.83114319369116 H 0.0 **** 0.06
35008 H 56.763632118249916 49.94045368723624 101.7516675014057 H 0.0 **** 0.06
35009 H 55.84001850136599 48.729561465010846 100.82969142608826 H 0.0 **** 0.06
35010 H 55.92018160933344 48.62520145741259 102.60497388567751 H 0.0 **** 0.06
35011 C 64.56713402908261 48.53380000611523 92.51153405418961 C 0.0 **** -0.24
35012 H 63.90352815202104 48.64867072264195 91.65442150036222 H 0.0 **** 0.06
35013 H 65.55659279422798 48.91491991878695 92.25689511628286 H 0.0 **** 0.06
35014 H 64.6398187152902 47.479230397387774 92.77542566125067 H 0.0 **** 0.06
35015 H 64.16777941149743 49.09377301465018 93.35707239028739 H 0.0 **** 0.06
35016 C 71.01032009447917 25.24356321166087 47.391958494414666 C 0.0 **** -0.24
35017 H 70.98968285585406 26.303220112871088 47.647339279702436 H 0.0 **** 0.06
35018 H 71.39735892150037 25.122006154596107 46.37972588445788 H 0.0 **** 0.06
35019 H 70.0000832375299 24.838152972031367 47.44650191402903 H 0.0 **** 0.06
35020 H 71.65284894046218 24.71353272854941 48.09379482333679 H 0.0 **** 0.06
35021 C 50.31947814676238 59.47186095761118 11.303964480954676 C 0.0 **** -0.24
35022 H 50.9045145786493 60.220051059884746 10.768736553781366 H 0.0 **** 0.06
35023 H 49.681929157331666 58.93736426021969 10.59918893084415 H 0.0 **** 0.06
35024 H 49.701241620051945 59.963507426883815 12.054241255714828 H 0.0 **** 0.06
35025 H 50.992369876897186 58.767448983545385 11.792950630742553 H 0.0 **** 0.06
35026 C 51.87493418844849 30.1868286875615 34.98142636788825 C 0.0 **** -0.24
35027 H 52.476230014174604 31.0966854007589 34.98036249054459 H 0.0 **** 0.06
35028 H 52.529184111602945 29.319063446367352 34.9012549654216 H 0.0 **** 0.06
35029 H 51.18819400712178 30.20461802056188 34.1342584291269 H 0.0 **** 0.06
35030 H 51.30576581288645 30.129737304290416 35.90953300401547 H 0.0 **** 0.06
35031 C 15.626950007079216 8.155777067054771 50.72006810303582 C 0.0 **** -0.24
35032 H 16.502964385496483 8.251619279794241 50.078990874261876 H 0.0 **** 0.06
35033 H 15.65676672543617 7.196160290947432 51.23546167098731 H 0.0 **** 0.06
35034 H 14.724127512267984 8.215718624065644 50.112402480847514 H 0.0 **** 0.06
35035 H 15.62529441647007 8.962843770741344 51.45472634538708 H 0.0 **** 0.06
35036 C 67.94437044027765 116.75984517135035 73.5517144859877 C 0.0 **** -0.24
35037 H 67.70932481300426 116.85761222996993 72.49186821446526 H 0.0 **** 0.06
35038 H 68.18859667891829 117.73935641734414 73.96198779560123 H 0.0 **** 0.06
35039 H 68.79590512205417 116.09010704537374 73.6747003928966 H 0.0 **** 0.06
35040 H 67.08198914925592 116.35006940340682 74.07782503713452 H 0.0 **** 0.06
35041 C 32.30847913698014 84.89186469807143 55.762437988087406 C 0.0 **** -0.24
35042 H 32.61165732258294 85.08743190118847 56.79051306512971 H 0.0 **** 0.06
35043 H 33.18286573868366 84.6193517384252 55.1712707241275 H 0.0 **** 0.06
35044 H 31.851269986245683 85.78782189756481 55.34238506107845 H 0.0 **** 0.06
35045 H 31.587889017313103 84.07382533496286 55.745571419435485 H 0.0 **** 0.06
35046 C 88.53080592205345 32.04578287454302 25.372664027455414 C 0.0 **** -0.24
35047 H 88.0437040992922 32.9994222797041 25.578396178172397 H 0.0 **** 0.06
35048 H 89.45589522846191 31.979865031595487 25.945221945955097 H 0.0 **** 0.06
35049 H 88.75488685772646 31.976269709368367 24.30770079682361 H 0.0 **** 0.06
35050 H 87.86701426649597 31.229645712014836 25.658017731814937 H 0.0 **** 0.06
35051 C 96.21697673558913 69.19961399756721 23.81581727473983 C 0.0 **** -0.24
35052 H 96.40180371854461 69.4108630996306 24.86954913277389 H 0.0 **** 0.06
35053 H 96.83823947703493 68.36200043088479 23.499022271847963 H 0.0 **** 0.06
35054 H 96.46185191911547 70.0795319564667 23.220857191321606 H 0.0 **** 0.06
35055 H 95.1662167123919 68.94664495756388 23.67511193981901 H 0.0 **** 0.06
35056 C 91.16632510013238 113.83787820739639 74.02144283975338 C 0.0 **** -0.24
35057 H 91.31647864986991 112.76417730962686 73.91103347423208 H 0.0 **** 0.06
35058 H 90.10648958875146 114.04324017471669 74.17248629176049 H 0.0 **** 0.06
35059 H 91.51196350931474 114.34780037098056 73.12225240483363 H 0.0 **** 0.06
35060 H 91.73247414596068 114.19630259555481 74.88213632693919 H 0.0 **** 0.06
35061 C 89.85244663392774 96.13988443037908 108.21178154348755 C 0.0 **** -0.24
35062 H 90.43666018655006 95.76158039313577 109.05133357475896 H 0.0 **** 0.06
35063 H 89.82448821895122 95.39024136853331 107.42114284102979 H 0.0 **** 0.06
35064 H 90.31243526298206 97.05215627377186 107.8321178729723 H 0.0 **** 0.06
35065 H 88.83720053124364 96.35596249040574 108.54388930529092 H 0.0 **** 0.06
35066 C 18.088465614796803 63.576887649020875 87.03015771160179 C 0.0 **** -0.24
35067 H 17.298737074442556 64.09968395978044 87.5701464547343 H 0.0 **** 0.06
35068 H 17.77311438329312 63.40762502508565 86.00027336457325 H 0.0 **** 0.06
35069 H 18.28368039181285 62.61866704354202 87.51182506440026 H 0.0 **** 0.06
35070 H 18.995939685228564 64.17906425746403 87.0393772133009 H 0.0 **** 0.06
35071 C 91.12239916152765 14.47943500313744 37.8098094567535 C 0.0 **** -0.24
35072 H 91.01334824562133 14.825278629072614 36.781500603921415 H 0.0 **** 0.06
35073 H 92.00868977637529 14.933653840992918 38.25296311514279 H 0.0 **** 0.06
35074 H 91.22742509131055 13.394462070981263 37.81763664421293 H 0.0 **** 0.06
35075 H 90.2414028830014 14.764081055328404 38.38443203278998 H 0.0 **** 0.06
35076 C 39.6309081938369 14.136563821339962 106.33674478937832 C 0.0 **** -0.24
35077 H 39.503669285980614 13.401512663419425 107.13158567288954 H 0.0 **** 0.06
35078 H 39.85857967001415 13.623483482365373 105.40156067911448 H 0.0 **** 0.06
35079 H 40.44957428850874 14.809251277810802 106.5918435132865 H 0.0 **** 0.06
35080 H 38.71052609825881 14.709921948257602 106.22203526985496 H 0.0 **** 0.06
35081 C 0.007086247297181103 26.299740421603985 82.16148972787875 C 0.0 **** -0.24
35082 H 0.3965879092069997 25.37329889664133 82.5829496835965 H 0.0 **** 0.06
35083 H 0.33696340708065975 27.142352552357863 82.76967132613885 H 0.0 **** 0.06
35084 H -1.0826760475364807 26.26405299165401 82.15078628279304 H 0.0 **** 0.06
35085 H 0.3770577838156868 26.419753435868387 81.14331592367 H 0.0 **** 0.06
35086 C 60.75022020419534 4.592571926218099 60.64104366751562 C 0.0 **** -0.24
35087 H 59.97865204192079 4.1446554231834085 60.0137539257436 H 0.0 **** 0.06
35088 H 60.28412545050751 5.245908215162913 61.37872947414684 H 0.0 **** 0.06
35089 H 61.43124491883287 5.173432753923095 60.019144163184336 H 0.0 **** 0.06
35090 H 61.30493439567352 3.805546979338729 61.15168429510109 H 0.0 **** 0.06
35091 C 3.302077764059703 38.7984495024252 82.57734098693118 C 0.0 **** -0.24
35092 H 2.4910616509691152 39.50644149224763 82.74393058304724 H 0.0 **** 0.06
35093 H 4.088886273281304 38.96715599028926 83.31262423848864 H 0.0 **** 0.06
35094 H 3.705340982575592 38.93954265650768 81.57420066507595 H 0.0 **** 0.06
35095 H 2.9232988442726935 37.78105843385339 82.67728064140377 H 0.0 **** 0.06
35096 C 12.52270067006836 10.723320500479659 40.71567393214397 C 0.0 **** -0.24
35097 H 12.150749311453012 9.781911387446371 41.122163949797944 H 0.0 **** 0.06
35098 H 12.70344699198705 11.4237251431326 41.531436216057 H 0.0 **** 0.06
35099 H 11.78137324515859 11.141884827755973 40.03479029045384 H 0.0 **** 0.06
35100 H 13.452168413410703 10.543478212942205 40.175854142557576 H 0.0 **** 0.06
35101 C 71.85133827313032 35.991959318234706 7.397170630034438 C 0.0 **** -0.24
35102 H 72.21371871922224 35.24617062285972 6.6904722982777685 H 0.0 **** 0.06
35103 H 71.11445538363608 36.62897571576451 6.9078040075361 H 0.0 **** 0.06
35104 H 72.68682567073444 36.60148008464705 7.7432187174145355 H 0.0 **** 0.06
35105 H 71.39077027139686 35.49050616091529 8.248713845018969 H 0.0 **** 0.06
35106 C 113.8494258808053 70.95518622245231 84.28254280339331 C 0.0 **** -0.24
35107 H 113.07193433724001 71.7172038091243 84.34372375846783 H 0.0 **** 0.06
35108 H 114.76586987125307 71.33594661229614 84.7330657070471 H 0.0 **** 0.06
35109 H 114.0343796915289 70.70872914926892 83.23647682644145 H 0.0 **** 0.06
35110 H 113.52555249438079 70.06175098197781 84.81474329630134 H 0.0 **** 0.06
35111 C 112.73392292399302 46.7259669519583 72.31940503351123 C 0.0 **** -0.24
35112 H 113.08777899081988 45.907630681051586 71.69266858743191 H 0.0 **** 0.06
35113 H 112.5594995542443 46.360155677990434 73.33101984972214 H 0.0 **** 0.06
35114 H 111.80302515306357 47.11997582150536 71.90960335981066 H 0.0 **** 0.06
35115 H 113.48334748882883 47.5162814509703 72.34213609360876 H 0.0 **** 0.06
35116 C 1.178555858565133 50.217099957208134 62.53254401976387 C 0.0 **** -0.24
35117 H 1.8142706075306592 49.498414910503314 62.01569055108404 H 0.0 **** 0.06
35118 H 0.8681607312670394 50.994742366694396 61.83351454484991 H 0.0 **** 0.06
35119 H 1.7335212855838904 50.66773580585027 63.35490563585996 H 0.0 **** 0.06
35120 H 0.2984769562037286 49.70747430271601 62.923838973216085 H 0.0 **** 0.06
35121 C 108.10323782571106 6.579442972225024 67.1557465099817 C 0.0 **** -0.24
35122 H 108.38734662828884 5.528165234863366 67.10562375425206 H 0.0 **** 0.06
35123 H 108.18775487138655 6.929432802638189 68.18514877473447 H 0.0 **** 0.06
35124 H 107.07408561404043 6.69413866464032 66.81643463237009 H 0.0 **** 0.06
35125 H 108.76400668115642 7.165143122382403 66.51684917519557 H 0.0 **** 0.06
35126 C 62.48543780091106 57.07495815201008 97.64151501674584 C 0.0 **** -0.24
35127 H 62.828168097354194 58.086014103383604 97.85966571026947 H 0.0 **** 0.06
35128 H 63.197514969466 56.354795614890065 98.0435224106144 H 0.0 **** 0.06
35129 H 62.40558668560101 56.943909697967 96.56215914686283 H 0.0 **** 0.06
35130 H 61.509237788063075 56.91672173649209 98.09978211337892 H 0.0 **** 0.06
35131 C 35.771185154199486 73.36990984468173 43.78832271550246 C 0.0 **** -0.24
35132 H 36.82020545283291 73.16121310933454 43.993546826199925 H 0.0 **** 0.06
35133 H 35.44305471150852 74.21588670040768 44.39348106024584 H 0.0 **** 0.06
35134 H 35.17162711436683 72.49345105786409 44.032082960748866 H 0.0 **** 0.06
35135 H 35.649485728107024 73.61081341552273 42.73137106372008 H 0.0 **** 0.06
35136 C 64.25396682986215 9.990366938240982 44.02269566797213 C 0.0 **** -0.24
35137 H 63.945170286430454 9.930574478832341 42.97864223415709 H 0.0 **** 0.06
35138 H 64.45072683063253 11.030585554234392 44.28421767445579 H 0.0 **** 0.06
35139 H 65.15856430783816 9.401205945599315 44.16847155422036 H 0.0 **** 0.06
35140 H 63.45826592848721 9.59929459284831 44.65840046041873 H 0.0 **** 0.06
35141 C 23.491128067166073 51.53636729156284 6.747463084258925 C 0.0 **** -0.24
35142 H 23.037594312000294 52.50783486383611 6.554215114393116 H 0.0 **** 0.06
35143 H 22.76694911855384 50.89006878175252 7.243827945852445 H 0.0 **** 0.06
35144 H 24.364739520218734 51.66294280739737 7.387680774495848 H 0.0 **** 0.06
35145 H 23.794841015967734 51.082937084876846 5.804038765442286 H 0.0 **** 0.06
35146 C 106.01680299461859 61.0036357348863 15.26042170633967 C 0.0 **** -0.24
35147 H 106.94000855819479 60.42488538608501 15.25383079845399 H 0.0 **** 0.06
35148 H 105.40595063538339 60.702567752246125 16.112481873359656 H 0.0 **** 0.06
35149 H 105.46694432405994 60.822131364838924 14.336899331973356 H 0.0 **** 0.06
35150 H 106.25398597193015 62.06469960225178 15.340156838204123 H 0.0 **** 0.06
35151 C 56.65260436532362 41.342459917814736 18.039080661912003 C 0.0 **** -0.24
35152 H 57.5870046253137 41.01698336967024 18.496011860129727 H 0.0 **** 0.06
35153 H 56.09067790388682 41.945872568673494 18.753004239274137 H 0.0 **** 0.06
35154 H 56.06304915986053 40.46996475618184 17.75736835706359 H 0.0 **** 0.06
35155 H 56.86988069528261 41.936999797029515 17.15237990890437 H 0.0 **** 0.06
35156 C 1.201250664690349 77.74189078433491 87.29200645569463 C 0.0 **** -0.24
35157 H 0.530165635251862 77.05751009697065 86.77403168696313 H 0.0 **** 0.06
35158 H 0.6157064893629212 78.42620347123147 87.90699279962175 H 0.0 **** 0.06
35159 H 1.775805646936675 78.31107604114572 86.56126116530578 H 0.0 **** 0.06
35160 H 1.880815743808398 77.17395279088291 87.92688649583073 H 0.0 **** 0.06
35161 C 70.08741250871299 31.46570528936426 40.787395274756136 C 0.0 **** -0.24
35162 H 69.49582035072743 32.246278864302994 40.30964686379252 H 0.0 **** 0.06
35163 H 69.78720448939393 30.49221040189888 40.39747103032255 H 0.0 **** 0.06
35164 H 69.92211389830325 31.49320856918431 41.86496799642123 H 0.0 **** 0.06
35165 H 71.14451129642728 31.631123322070614 40.57749520848836 H 0.0 **** 0.06
35166 C 6.592063133023657 50.56791378676968 44.82804717182981 C 0.0 **** -0.24
35167 H 5.56887929058621 50.93026833730946 44.92766630227271 H 0.0 **** 0.06
35168 H 6.729935976639496 50.13809818382779 43.83603831298112 H 0.0 **** 0.06
35169 H 6.78345559444918 49.806830418963784 45.58396314001203 H 0.0 **** 0.06
35170 H 7.285698610358196 51.39735232915774 44.9641738289298 H 0.0 **** 0.06
35171 C 90.37212351425319 5.679939599582838 15.725603086484455 C 0.0 **** -0.24
35172 H 89.71214363549362 6.489300009371277 16.037635530536164 H 0.0 **** 0.06
35173 H 90.10478012034014 5.363175107129166 14.716712694798446 H 0.0 **** 0.06
35174 H 90.26454498786666 4.8395646301391935 16.410043463601085 H 0.0 **** 0.06
35175 H 91.4046571840062 6.02786989126173 15.735930281274932 H 0.0 **** 0.06
35176 C 100.53223440102371 101.46800422932608 77.79558216152233 C 0.0 **** -0.24
35177 H 99.4928061464428 101.56748722774682 78.10867162998088 H 0.0 **** 0.06
35178 H 100.61062376943622 101.66147753060972 76.72518446672592 H 0.0 **** 0.06
35179 H 100.88087723453856 100.45735111956432 78.00935181448568 H 0.0 **** 0.06
35180 H 101.14559055730868 102.18569747888492 78.34114025924433 H 0.0 **** 0.06
35181 C 101.02119926539854 4.3672634805840715 37.42088284971784 C 0.0 **** -0.24
35182 H 101.2463454776838 4.96644910357621 36.53825961500283 H 0.0 **** 0.06
35183 H 100.7002896958623 3.3724985898140574 37.11148531402124 H 0.0 **** 0.06
35184 H 100.22504819403153 4.84590053082448 37.990774935270146 H 0.0 **** 0.06
35185 H 101.91404647438799 4.285988893962312 38.041614938116666 H 0.0 **** 0.06
35186 C 90.07409307965841 109.48606315717083 105.24043900507294 C 0.0 **** -0.24
35187 H 89.41802146361036 108.94675445269196 104.55563009329347 H 0.0 **** 0.06
35188 H 91.03639176547631 109.66173379933468 104.75937555650009 H 0.0 **** 0.06
35189 H 90.22072402699567 108.8944627907035 106.14419303481273 H 0.0 **** 0.06
35190 H 89.61767366058709 110.44098598031208 105.5020908983596 H 0.0 **** 0.06
35191 C 107.68405561370119 21.77606104060996 66.20744930956636 C 0.0 **** -0.24
35192 H 108.11482308808922 22.76387384434173 66.04637738381774 H 0.0 **** 0.06
35193 H 107.49771720229774 21.629798115961194 67.27168243894897 H 0.0 **** 0.06
35194 H 108.3785357854322 21.014909573928904 65.85141740208894 H 0.0 **** 0.06
35195 H 106.74514637898562 21.69566262820787 65.66032001340966 H 0.0 **** 0.06
35196 C 28.356924795947933 8.763043127651002 41.6206632360892 C 0.0 **** -0.24
35197 H 27.735685255324555 8.634281566016597 40.735035895606416 H 0.0 **** 0.06
35198 H 27.72844139762796 8.738756730152886 42.511760224732285 H 0.0 **** 0.06
35199 H 28.872686974769465 9.72249705617807 41.56605936365696 H 0.0 **** 0.06
35200 H 29.090799237468758 7.959043853440363 41.67024547340941 H 0.0 **** 0.06
35201 C 55.68977776706754 7.2493355183248696 93.50581822859954 C 0.0 **** -0.24
35202 H 56.659788951785885 7.4905322332602395 93.93992349133862 H 0.0 **** 0.06
35203 H 55.6997015124652 7.483527391291773 92.44182876049695 H 0.0 **** 0.06
35204 H 54.91485547340858 7.835743406677352 94.00050626176574 H 0.0 **** 0.06
35205 H 55.48514605818346 6.187450170536238 93.64237348583276 H 0.0 **** 0.06
35206 C 67.56644561811478 96.81040513377576 24.90404013938621 C 0.0 **** -0.24
35207 H 67.92601357863654 96.17171336634797 25.710632140405096 H 0.0 **** 0.06
35208 H 68.40418641814895 97.36332686281261 24.47826212165254 H 0.0 **** 0.06
35209 H 66.83004103187642 97.51139652451587 25.297743523227936 H 0.0 **** 0.06
35210 H 67.10549959106521 96.1951158010205 24.131971031908733 H 0.0 **** 0.06
35211 C 96.18413927265917 56.550931931343484 7.7765951389544625 C 0.0 **** -0.24
35212 H 96.05358706808855 56.08998089140607 6.797684413931677 H 0.0 **** 0.06
35213 H 95.48859530764804 57.38329929425436 7.881424058394796 H 0.0 **** 0.06
35214 H 97.20655481581122 56.9172556804763 7.872074794347405 H 0.0 **** 0.06
35215 H 95.9882829191869 55.81204116060667 8.554517862069059 H 0.0 **** 0.06
35216 C 88.81948440240609 110.6377359343197 93.05928788134199 C 0.0 **** -0.24
35217 H 88.56701209992659 111.63955167501983 93.40806571446191 H 0.0 **** 0.06
35218 H 88.07994045908609 109.92701423763627 93.42780840565993 H 0.0 **** 0.06
35219 H 89.80576383649168 110.36228734292133 93.43125542220022 H 0.0 **** 0.06
35220 H 88.82516905948455 110.62466835263052 91.96885908762215 H 0.0 **** 0.06
35221 C 11.429968236913453 49.68275610383691 94.85111609059848 C 0.0 **** -0.24
35222 H 11.247422965824853 48.63404309779807 95.08416797643997 H 0.0 **** 0.06
35223 H 10.826063988755948 50.310478165710634 95.507336869319 H 0.0 **** 0.06
35224 H 11.161716928728822 49.87719270005206 93.81318904581522 H 0.0 **** 0.06
35225 H 12.485833240124123 49.90881269222203 95.00161362583768 H 0.0 **** 0.06
35226 C 7.457986418030089 49.4314036839846 29.507902207560107 C 0.0 **** -0.24
35227 H 8.127234382356221 48.572351497421266 29.565760073318955 H 0.0 **** 0.06
35228 H 7.592743106854215 49.93218457574878 28.549058053728544 H 0.0 **** 0.06
35229 H 7.686891905780229 50.12473600780464 30.316299662586175 H 0.0 **** 0.06
35230 H 6.425872265056782 49.09345187207913 29.600389551770462 H 0.0 **** 0.06
35231 C 10.255996347654332 102.7936212063864 64.45508504426192 C 0.0 **** -0.24
35232 H 10.204250479414497 103.62825538448962 63.75585180284736 H 0.0 **** 0.06
35233 H 11.044851795875502 102.10782400194398 64.1443177608806 H 0.0 **** 0.06
35234 H 9.300120747387751 102.26898186212188 64.46515556107903 H 0.0 **** 0.06
35235 H 10.474721371334141 103.17018933182527 65.45437318242472 H 0.0 **** 0.06
35236 C 85.31996394874321 36.45899895109051 54.87544462241518 C 0.0 **** -0.24
35237 H 84.61491001323844 37.29002716847659 54.828528525635114 H 0.0 **** 0.06
35238 H 85.63290698993464 36.306103241153075 55.909090410311315 H 0.0 **** 0.06
35239 H 86.19017532524168 36.685956518988895 54.2615014258343 H 0.0 **** 0.06
35240 H 84.83835374562105 35.55378997989338 54.50394984589071 H 0.0 **** 0.06
35241 C 68.18441598489943 32.34753387243049 72.74661504490098 C 0.0 **** -0.24
35242 H 67.24033991105358 31.805309066468823 72.68712022223596 H 0.0 **** 0.06
35243 H 68.1589792629257 33.19811109851673 72.06549954978132 H 0.0 **** 0.06
35244 H 69.00235288247717 31.68255177750973 72.4688777135267 H 0.0 **** 0.06
35245 H 68.33489127570311 32.702251078069224 73.76699533948846 H 0.0 **** 0.06
35246 C 21.053412214364958 19.766702759351062 57.85504357385887 C 0.0 **** -0.24
35247 H 20.529067720891167 19.493013783595472 56.93960043034091 H 0.0 **** 0.06
35248 H 21.119539482730584 18.897529955306368 58.50939499396302 H 0.0 **** 0.06
35249 H 20.508254689357386 20.563075136051964 58.36111100161484 H 0.0 **** 0.06
35250 H 22.05705214647301 20.114438446964698 57.60823027770369 H 0.0 **** 0.06
35251 C 71.30170874214951 81.65887464526705 19.52987730980756 C 0.0 **** -0.24
35252 H 71.05346553773671 81.47895930459256 20.57617161979965 H 0.0 **** 0.06
35253 H 71.79651352212989 82.62530388652354 19.434537363933327 H 0.0 **** 0.06
35254 H 70.38751479943181 81.65811264339925 18.93483872320737 H 0.0 **** 0.06
35255 H 71.96741550079952 80.87213997168047 19.173390151765286 H 0.0 **** 0.06
35256 C 42.49379050978297 87.55758532902462 62.15683139206058 C 0.0 **** -0.24
35257 H 42.41853348440043 86.70974001914067 62.837663729842376 H 0.0 **** 0.06
35258 H 41.614168651532225 87.5850417391554 61.5132340549479 H 0.0 **** 0.06
35259 H 43.389557996732265 87.45305771555823 61.54381050196926 H 0.0 **** 0.06
35260 H 42.55329177862768 88.48181441215391 62.73144444062848 H 0.0 **** 0.06
35261 C 89.86886650946624 13.279413770140067 81.63079044318866 C 0.0 **** -0.24
35262 H 90.42039405274781 13.973363061162487 80.99695712094612 H 0.0 **** 0.06
35263 H 89.30625040128834 12.58483038806854 81.00531851968802 H 0.0 **** 0.06
35264 H 89.17899565284887 13.836823896730039 82.2654850125156 H 0.0 **** 0.06
35265 H 90.56759479216569 12.722693065879582 82.25553985781039 H 0.0 **** 0.06
35266 C 81.85532487680999 88.6054330394301 72.22422327407727 C 0.0 **** -0.24
35267 H 82.44106999971868 88.50078746743861 71.31053461519474 H 0.0 **** 0.06
35268 H 82.52529651812182 88.78361112189359 73.06647302673048 H 0.0 **** 0.06
35269 H 81.28820520049749 87.69082318127334 72.39829815696689 H 0.0 **** 0.06
35270 H 81.16860291322612 89.44529513931946 72.12167315669075 H 0.0 **** 0.06
35271 C 6.124650719309836 72.69214464507291 37.317205270668666 C 0.0 **** -0.24
35272 H 5.15741303967418 72.33776613117058 36.960551210339275 H 0.0 **** 0.06
35273 H 5.98411266562149 73.28321836508343 38.222650977218166 H 0.0 **** 0.06
35274 H 6.590523007988724 73.31051244785354 36.54914582784215 H 0.0 **** 0.06
35275 H 6.766730614309727 71.83932204254072 37.53549849407099 H 0.0 **** 0.06
35276 C 85.85196662607595 14.840477994856428 110.40025703024816 C 0.0 **** -0.24
35277 H 85.65589595239962 15.601193800533338 111.15601739637356 H 0.0 **** 0.06
35278 H 85.867535346089 13.85680707630695 110.870511382436 H 0.0 **** 0.06
35279 H 86.81686582654757 15.034721635001858 109.93045495900878 H 0.0 **** 0.06
35280 H 85.06831774203474 14.86925585450615 109.64338438014806 H 0.0 **** 0.06
35281 C 43.45563814494761 90.20919955287908 95.66731861217608 C 0.0 **** -0.24
35282 H 42.947807861098624 91.16974973806597 95.74988777751776 H 0.0 **** 0.06
35283 H 43.87161020865952 89.93295698063412 96.63690632176309 H 0.0 **** 0.06
35284 H 44.25993555336932 90.28611190453847 94.93550159301066 H 0.0 **** 0.06
35285 H 42.744131494923224 89.44833601862328 95.3469205511538 H 0.0 **** 0.06
35286 C 21.576357105229103 81.83615386611712 68.83204829272913 C 0.0 **** -0.24
35287 H 21.369655066136612 81.36976881255418 69.79579788124147 H 0.0 **** 0.06
35288 H 21.69988669429547 82.91096224876259 68.96734938572493 H 0.0 **** 0.06
35289 H 20.745781667654043 81.64741889442146 68.15128139746537 H 0.0 **** 0.06
35290 H 22.491300969310878 81.41521260130597 68.41377062155055 H 0.0 **** 0.06
35291 C 2.4326150523335315 53.26662330937185 9.346481791098881 C 0.0 **** -0.24
35292 H 1.565823099558969 53.79359757258588 8.947622413939598 H 0.0 **** 0.06
35293 H 3.273537422319862 53.38156061280477 8.662213585523148 H 0.0 **** 0.06
35294 H 2.1951770787351137 52.209022638978084 9.45731022762044 H 0.0 **** 0.06
35295 H 2.6951073761506734 53.68334895435513 10.31929191111044 H 0.0 **** 0.06
35296 C 112.29472066331925 53.3556658650925 84.99267479789276 C 0.0 **** -0.24
35297 H 111.91500991980189 53.64338421186282 85.973659475945 H 0.0 **** 0.06
35298 H 112.20126164399147 54.197748503325705 84.30620027950042 H 0.0 **** 0.06
35299 H 111.71806462570817 52.51160480219926 84.61413720276056 H 0.0 **** 0.06
35300 H 113.34331133006413 53.070260132898355 85.07853609597322 H 0.0 **** 0.06
35301 C 26.986703346277352 82.00191781555694 60.472485802206336 C 0.0 **** -0.24
35302 H 27.676364099365685 82.83597290726613 60.340564808364434 H 0.0 **** 0.06
35303 H 27.093207277547577 81.30789240319737 59.637934015017606 H 0.0 **** 0.06
35304 H 25.96435679790605 82.37835477947598 60.50405636444225 H 0.0 **** 0.06
35305 H 27.212753493814688 81.48722603707677 61.40603421303774 H 0.0 **** 0.06
35306 C 38.30038934076771 56.40262898476141 73.03361857491709 C 0.0 **** -0.24
35307 H 37.27121365274695 56.05096055788823 73.09462348039455 H 0.0 **** 0.06
35308 H 38.79567234214707 55.933414289359234 72.18262481833887 H 0.0 **** 0.06
35309 H 38.82831742584517 56.14209059512973 73.95034240688952 H 0.0 **** 0.06
35310 H 38.3071208505433 57.48577571138088 72.90568535523752 H 0.0 **** 0.06
35311 C 3.462179690504854 82.27764886895798 24.58202867536857 C 0.0 **** -0.24
35312 H 3.5867044097277585 82.07304285862074 23.51888761548705 H 0.0 **** 0.06
35313 H 4.053047314270202 83.15216594972415 24.85441313096196 H 0.0 **** 0.06
35314 H 3.7984592589980366 81.41622416934499 25.158599116056386 H 0.0 **** 0.06
35315 H 2.4099224519019344 82.46878329683588 24.793866659497702 H 0.0 **** 0.06
35316 C 33.55325551737346 85.24431042221886 37.58045085199296 C 0.0 **** -0.24
35317 H 33.35790769374697 86.28299050998419 37.84640732944166 H 0.0 **** 0.06
35318 H 34.5964564603087 85.13628749449714 37.28262903289219 H 0.0 **** 0.06
35319 H 32.90649365721535 84.95452113597423 36.75131857901311 H 0.0 **** 0.06
35320 H 33.35102167364967 84.60469093798656 38.4389712612575 H 0.0 **** 0.06
35321 C 6.456018589261532 47.52140751143867 76.32729529431123 C 0.0 **** -0.24
35322 H 7.39314724206605 46.98555013213767 76.17625647114403 H 0.0 **** 0.06
35323 H 5.624050075450384 46.89508866831582 76.00640430921356 H 0.0 **** 0.06
35324 H 6.4656249262671395 48.4408861056316 75.74171027217318 H 0.0 **** 0.06
35325 H 6.34348557630085 47.76418606365973 77.3838074071744 H 0.0 **** 0.06
35326 C 8.464397605004649 87.31026497773456 99.09523779971465 C 0.0 **** -0.24
35327 H 7.937790042006341 86.79561913856492 99.89841776211387 H 0.0 **** 0.06
35328 H 8.743520374675086 86.59130342605522 98.32469269512859 H 0.0 **** 0.06
35329 H 9.362139627238804 87.78301703212861 99.49327637618742 H 0.0 **** 0.06
35330 H 7.813740045470809 88.0717413579332 98.66389049740982 H 0.0 **** 0.06
35331 C 43.64853398535419 30.479641948979435 45.602173858929206 C 0.0 **** -0.24
35332 H 44.07365439676059 30.622596742849822 44.60928944319693 H 0.0 **** 0.06
35333 H 44.438690140229426 30.555725709086403 46.35050773886199 H 0.0 **** 0.06
35334 H 43.185804117128896 29.493750352915498 45.66062792044855 H 0.0 **** 0.06
35335 H 42.89527973995865 31.245595175500426 45.78910089013718 H 0.0 **** 0.06
35336 C 56.804724863305864 16.41062719299549 51.33811629287911 C 0.0 **** -0.24
35337 H 55.900991234518244 16.43248790274785 51.947639581464415 H 0.0 **** 0.06
35338 H 57.475476827057946 15.635555014557752 51.70960777118057 H 0.0 **** 0.06
35339 H 57.30278428624513 17.378836651608225 51.39265290360065 H 0.0 **** 0.06
35340 H 56.539062972021895 16.196915596377977 50.302628919535366 H 0.0 **** 0.06
35341 C 99.23274298009002 108.75497580148499 41.77323142181967 C 0.0 **** -0.24
35342 H 98.48311980178875 109.52768106181422 41.94527695600408 H 0.0 **** 0.06
35343 H 99.80245604674917 108.59214237302734 42.68843921014343 H 0.0 **** 0.06
35344 H 99.90565272253431 109.07200256638535 40.97684618736537 H 0.0 **** 0.06
35345 H 98.73749836386261 107.82708277357867 41.483767474627655 H 0.0 **** 0.06
35346 C 92.13516407995957 51.160615015156736 22.423605546756107 C 0.0 **** -0.24
35347 H 91.72755663778588 50.74053759188919 21.50441891576054 H 0.0 **** 0.06
35348 H 93.04926341832459 50.629677530073195 22.691048631903527 H 0.0 **** 0.06
35349 H 91.40505963971376 51.05555612938011 23.226876468436217 H 0.0 **** 0.06
35350 H 92.35925600435476 52.216396596144335 22.27125060580886 H 0.0 **** 0.06
35351 C 4.258388748730525 23.492666535610645 68.66659036802443 C 0.0 **** -0.24
35352 H 4.977530280631896 23.82013616837454 67.91570484453297 H 0.0 **** 0.06
35353 H 4.788716852029296 23.192731846457242 69.57056894455536 H 0.0 **** 0.06
35354 H 3.690569863143665 22.646393830394846 68.27958752280554 H 0.0 **** 0.06
35355 H 3.5776066034645737 24.3114457110663 68.89844003845258 H 0.0 **** 0.06
35356 C 9.183987445480021 92.92236404469352 32.85510680573071 C 0.0 **** -0.24
35357 H 10.229064607591617 92.61136822704901 32.86390129097839 H 0.0 **** 0.06
35358 H 8.59564843686423 92.23175408421679 33.460024247524956 H 0.0 **** 0.06
35359 H 8.811925387122951 92.9172278941958 31.83051448763797 H 0.0 **** 0.06
35360 H 9.10029351641974 93.92764726997274 33.26769244827648 H 0.0 **** 0.06
35361 C 90.73680214310326 74.98778054609306 110.94724229345914 C 0.0 **** -0.24
35362 H 90.84963168228938 76.06212173673904 110.80331717262479 H 0.0 **** 0.06
35363 H 89.95032739422896 74.61382889736458 110.29098955702834 H 0.0 **** 0.06
35364 H 90.47070880588916 74.78556950313077 111.98511658270921 H 0.0 **** 0.06
35365 H 91.67642968468985 74.48864759465755 110.70926881214126 H 0.0 **** 0.06
35366 C 91.8112696350698 14.691731987425356 102.12427380366975 C 0.0 **** -0.24
35367 H 91.68608149754257 14.875404320299271 103.1912838124903 H 0.0 **** 0.06
35368 H 92.13594238072181 13.662263876641031 101.96875512994399 H 0.0 **** 0.06
35369 H 92.56045787005394 15.373720081196474 101.72364040033315 H 0.0 **** 0.06
35370 H 90.86188052965502 14.853791505971031 101.61461218943458 H 0.0 **** 0.06
35371 C 27.97028278654566 90.79763448513489 75.53300284559685 C 0.0 **** -0.24
35372 H 27.879805840111302 89.9080885167119 74.90950876824178 H 0.0 **** 0.06
35373 H 28.681714333649836 91.4881099589877 75.07923773101669 H 0.0 **** 0.06
35374 H 28.322930334629397 90.51226398924439 76.52391471301513 H 0.0 **** 0.06
35375 H 26.99750833223011 91.2806908278032 75.61871941932475 H 0.0 **** 0.06
35376 C 104.44618512152934 91.89879870855037 38.44874907812343 C 0.0 **** -0.24
35377 H 104.29954019032436 90.92991121001569 37.9721463046169 H 0.0 **** 0.06
35378 H 103.82411087185349 91.96303412807634 39.34231748012621 H 0.0 **** 0.06
35379 H 104.16712070459559 92.69127500051025 37.75387687380157 H 0.0 **** 0.06
35380 H 105.49417938573515 92.01269373006977 38.72666081691247 H 0.0 **** 0.06
35381 C 108.72134845021593 23.10674667821264 88.57974928372039 C 0.0 **** -0.24
35382 H 108.80798737084756 23.453189557790335 89.61018320433215 H 0.0 **** 0.06
35383 H 107.73359648667548 22.671957392248036 88.4256670977743 H 0.0 **** 0.06
35384 H 109.48458807031157 22.353361812606625 88.3853026791515 H 0.0 **** 0.06
35385 H 108.85928077924603 23.94736729354733 87.90044481435595 H 0.0 **** 0.06
35386 C 89.24137424950217 41.974132464029196 62.91773229799992 C 0.0 **** -0.24
35387 H 89.72065717115572 41.00355524470456 63.0491163128749 H 0.0 **** 0.06
35388 H 88.43982824176638 42.08387000181341 63.64907059821948 H 0.0 **** 0.06
35389 H 88.82638485542779 42.04131321590728 61.91200444148927 H 0.0 **** 0.06
35390 H 89.97673277163847 42.76497438876686 63.061953635830235 H 0.0 **** 0.06
35391 C 33.26082495480364 71.72972816137735 12.14685355625042 C 0.0 **** -0.24
35392 H 32.74557484540662 70.77773628506665 12.017413291789211 H 0.0 **** 0.06
35393 H 32.52947414779209 72.51344950264055 12.347148054315852 H 0.0 **** 0.06
35394 H 33.81216298823165 71.97064915897653 11.23854394516917 H 0.0 **** 0.06
35395 H 33.953893207625924 71.65610050534943 12.984787514627413 H 0.0 **** 0.06
35396 C 56.15102803083818 30.051405322689618 82.56235677166856 C 0.0 **** -0.24
35397 H 56.68375050815092 29.821490789493538 83.4849672100554 H 0.0 **** 0.06
35398 H 55.91417770759773 29.124943868364852 82.03971537152029 H 0.0 **** 0.06
35399 H 56.77778963338301 30.677631255211452 81.92761593663329 H 0.0 **** 0.06
35400 H 55.22873937132181 30.58207718818707 82.79839692878232 H 0.0 **** 0.06
35401 C 82.31968418105774 44.93422582491232 72.45118062144368 C 0.0 **** -0.24
35402 H 82.10379000376477 45.4962309165775 73.3604902585723 H 0.0 **** 0.06
35403 H 82.48341644283488 45.62650241475612 71.62624805094927 H 0.0 **** 0.06
35404 H 81.47569787923328 44.283544010310834 72.21837304415968 H 0.0 **** 0.06
35405 H 83.21420891928167 44.330113084451256 72.60186983541104 H 0.0 **** 0.06
35406 C 35.53227302653548 48.99606611036751 75.39106429334848 C 0.0 **** -0.24
35407 H 36.251936192102534 48.39372840118949 75.94535769005986 H 0.0 **** 0.06
35408 H 34.52012170346919 48.70083962732457 75.6688106270847 H 0.0 **** 0.06
35409 H 35.67552062643807 48.841071728786346 74.32090359052813 H 0.0 **** 0.06
35410 H 35.68161564306058 50.04913415749783 75.62833081914422 H 0.0 **** 0.06
35411 C 78.90135927806458 6.184985106763492 38.187461652082135 C 0.0 **** -0.24
35412 H 79.0892099907496 6.9487264203503685 37.433866808969924 H 0.0 **** 0.06
35413 H 79.40547205214051 5.261670937576582 37.90191791564729 H 0.0 **** 0.06
35414 H 77.82880388560301 6.004570389790331 38.26286360654075 H 0.0 **** 0.06
35415 H 79.28149784440114 6.524090112217692 39.15107331016648 H 0.0 **** 0.06
35416 C 2.5492644863586946 35.90827052218512 93.99516296327295 C 0.0 **** -0.24
35417 H 3.179930741875083 35.628112791649386 94.83835311557729 H 0.0 **** 0.06
35418 H 2.1089580995185457 36.88884499745393 94.18029545752424 H 0.0 **** 0.06
35419 H 1.7562184586048204 35.17101918453159 93.87350204294768 H 0.0 **** 0.06
35420 H 3.151693007775833 35.946275064090884 93.08725023090474 H 0.0 **** 0.06
35421 C 20.16752951956289 26.764497037901833 86.012023790836 C 0.0 **** -0.24
35422 H 19.132456518281657 27.069919547683355 85.8580726532644 H 0.0 **** 0.06
35423 H 20.790662273944235 27.64870183990726 86.14758715718548 H 0.0 **** 0.06
35424 H 20.514175587855647 26.20471869219932 85.14350858848934 H 0.0 **** 0.06
35425 H 20.232073825294748 26.13492177033163 86.90009419572817 H 0.0 **** 0.06
35426 C 67.57875681600134 66.80948970489851 9.82494825562523 C 0.0 **** -0.24
35427 H 68.29326468992042 67.4246509721277 9.277410023294294 H 0.0 **** 0.06
35428 H 67.41237780157539 65.87765393129311 9.283189858271442 H 0.0 **** 0.06
35429 H 66.63628019765176 67.34829464821192 9.921870979142497 H 0.0 **** 0.06
35430 H 67.97435119199233 66.58829180405195 10.816562888252236 H 0.0 **** 0.06
35431 C 64.65512805757959 116.48973741725571 12.209080973649094 C 0.0 **** -0.24
35432 H 64.04890541249915 117.3320792922112 12.539760783195561 H 0.0 **** 0.06
35433 H 64.93904328704176 116.63328807361322 11.166471590746312 H 0.0 **** 0.06
35434 H 64.08050632548296 115.56831736864889 12.30614772773444 H 0.0 **** 0.06
35435 H 65.55348438686141 116.42387363993045 12.824110178789283 H 0.0 **** 0.06
35436 C 79.20161452571347 15.071026105040403 88.8079548345747 C 0.0 **** -0.24
35437 H 79.2774921664303 15.738251160076402 89.66573638923856 H 0.0 **** 0.06
35438 H 78.16847015107453 15.043108589396184 88.45939154142053 H 0.0 **** 0.06
35439 H 79.51417809551276 14.068363670354103 89.09888781151585 H 0.0 **** 0.06
35440 H 79.84586170323234 15.43348931383349 88.00680505343561 H 0.0 **** 0.06
35441 C 0.25750819827160853 81.52874340970405 50.535452194215566 C 0.0 **** -0.24
35442 H -0.3697771620723955 81.69657072926262 49.66046134626765 H 0.0 **** 0.06
35443 H 0.84260733536847 82.42576326170035 50.74001121357165 H 0.0 **** 0.06
35444 H 0.9296106337949084 80.69230430968946 50.34464628899818 H 0.0 **** 0.06
35445 H -0.37128689004202897 81.30037571167739 51.3958287850985 H 0.0 **** 0.06
35446 C 41.84353174753062 12.55197896490996 115.78014161232443 C 0.0 **** -0.24
35447 H 41.97008126844574 13.627963757133521 115.65750413310622 H 0.0 **** 0.06
35448 H 41.96573181203502 12.28846001254798 116.82998387704134 H 0.0 **** 0.06
35449 H 42.590866807069176 12.027976867586798 115.18441510726223 H 0.0 **** 0.06
35450 H 40.84642041274009 12.263741235387055 115.44568081506452 H 0.0 **** 0.06
35451 C 76.33226866974218 75.74041678444763 56.716311653937765 C 0.0 **** -0.24
35452 H 75.76992304357918 76.67277879842459 56.76838319182883 H 0.0 **** 0.06
35453 H 77.13613894123256 75.76055237358571 57.453227660165766 H 0.0 **** 0.06
35454 H 76.75625230458388 75.62718577134854 55.71863907711122 H 0.0 **** 0.06
35455 H 75.66774112878599 74.90300898249234 56.92625502119586 H 0.0 **** 0.06
35456 C 88.37154041342819 89.11864335165666 113.82159006466335 C 0.0 **** -0.24
35457 H 87.84204682779051 90.04827388255754 113.61313244328727 H 0.0 **** 0.06
35458 H 88.74048052459494 88.69332576541322 112.88795836854175 H 0.0 **** 0.06
35459 H 87.69124120358259 88.41191052048231 114.29853424543087 H 0.0 **** 0.06
35460 H 89.21039553567294 89.32036514274805 114.48745818050517 H 0.0 **** 0.06
35461 C 88.75650429561313 53.0130740417159 79.95828072110481 C 0.0 **** -0.24
35462 H 89.32732714064846 53.43296994580752 79.12996213269594 H 0.0 **** 0.06
35463 H 87.85767795103274 53.6079049024302 80.11767757700147 H 0.0 **** 0.06
35464 H 89.36669509271354 53.025375258087145 80.86224694042787 H 0.0 **** 0.06
35465 H 88.47744942235676 51.98621289027476 79.72283540222162 H 0.0 **** 0.06
35466 C 114.89393896115509 2.039081015590611 113.78537308660543 C 0.0 **** -0.24
35467 H 113.91367071039767 2.5004261574712103 113.66842975205644 H 0.0 **** 0.06
35468 H 115.66927885840158 2.7805037242262927 113.59490177590135 H 0.0 **** 0.06
35469 H 114.9937417685922 1.2167274370830512 113.07635051617649 H 0.0 **** 0.06
35470 H 114.99659774445087 1.6576727146104275 114.80084725908985 H 0.0 **** 0.06
35471 C 100.57479370414092 4.65875655567568 19.598342803062422 C 0.0 **** -0.24
35472 H 101.14707153246621 5.369564195479754 19.001601154548553 H 0.0 **** 0.06
35473 H 101.0181141883005 3.6670511412623625 19.504986919833897 H 0.0 **** 0.06
35474 H 99.54453388515478 4.632103675589505 19.24235637170463 H 0.0 **** 0.06
35475 H 100.58972136307051 4.967196242627267 20.643359573287853 H 0.0 **** 0.06
35476 C 66.95621851734168 97.10171297894118 90.1994753258175 C 0.0 **** -0.24
35477 H 67.46280621128008 97.11945177883851 89.2343265138517 H 0.0 **** 0.06
35478 H 65.88079453131797 97.19593431235899 90.04671213151565 H 0.0 **** 0.06
35479 H 67.31086111107729 97.93122086489856 90.81030443219771 H 0.0 **** 0.06
35480 H 67.1708635075656 96.16014024513555 90.70437061039155 H 0.0 **** 0.06
35481 C 64.39188360648444 104.58065812697791 12.913212410678057 C 0.0 **** -0.24
35482 H 63.41867665131548 104.6543975229751 12.427111872404197 H 0.0 **** 0.06
35483 H 64.33578435477409 103.86322288628287 13.731876268932695 H 0.0 **** 0.06
35484 H 64.67741915010987 105.55718845112116 13.303889931641635 H 0.0 **** 0.06
35485 H 65.13483864166284 104.24838872755132 12.187731975191497 H 0.0 **** 0.06
35486 C 50.803050303252405 64.25837471037889 15.813374639468726 C 0.0 **** -0.24
35487 H 50.94636725713991 64.97969404074456 15.008827163116091 H 0.0 **** 0.06
35488 H 49.88586724389023 63.69616916711601 15.637641510452124 H 0.0 **** 0.06
35489 H 50.731213897039595 64.78492385240568 16.765274593113563 H 0.0 **** 0.06
35490 H 51.65001883907129 63.57170312559603 15.83991677413557 H 0.0 **** 0.06
35491 C 53.84132902560544 3.6392865315937453 94.98715255712739 C 0.0 **** -0.24
35492 H 54.5064893740301 2.774879444578758 94.96914777943545 H 0.0 **** 0.06
35493 H 54.43400345894405 4.553597515450736 94.98868731789992 H 0.0 **** 0.06
35494 H 53.22498899079392 3.603926225614858 95.8865088178816 H 0.0 **** 0.06
35495 H 53.19934326294214 3.6219181761593227 94.10593372063283 H 0.0 **** 0.06
35496 C 44.93697616268716 20.351702675505067 114.21884484917499 C 0.0 **** -0.24
35497 H 45.102369343936715 20.77169699417584 115.2109702600288 H 0.0 **** 0.06
35498 H 45.00131493158537 19.264013562521797 114.2689544826675 H 0.0 **** 0.06
35499 H 45.69540965874859 20.7295972273063 113.53277098940086 H 0.0 **** 0.06
35500 H 43.948034862836124 20.640405999125278 113.86224214883426 H 0.0 **** 0.06
35501 C 69.23726879642737 24.245309640005217 96.0465229646891 C 0.0 **** -0.24
35502 H 69.05035699900509 24.074745583676503 94.98647116086576 H 0.0 **** 0.06
35503 H 70.19154759317735 23.7961942087787 96.32320747723685 H 0.0 **** 0.06
35504 H 68.43870675827179 23.79128893497861 96.63286996859807 H 0.0 **** 0.06
35505 H 69.2683149600312 25.316821465165077 96.24245273268713 H 0.0 **** 0.06
35506 C 91.48203529352762 100.31136579754192 24.171109198400757 C 0.0 **** -0.24
35507 H 90.80205073371548 99.47662644872892 24.001712712631445 H 0.0 **** 0.06
35508 H 92.37112290271477 99.95562925832581 24.691937110327615 H 0.0 **** 0.06
35509 H 90.98394899972499 101.06780887256224 24.77864928665292 H 0.0 **** 0.06
35510 H 91.76995144005318 100.74520374557994 23.214093091866914 H 0.0 **** 0.06
35511 C 1.6639481745472011 101.14562856958239 42.0130543432071 C 0.0 **** -0.24
35512 H 1.1148056509181998 101.77260984169212 41.310452072601095 H 0.0 **** 0.06
35513 H 1.8832946193662394 101.71767595847373 42.91472163325392 H 0.0 **** 0.06
35514 H 2.5967369110325222 100.81796319623902 41.55430110830781 H 0.0 **** 0.06
35515 H 1.0607715740480472 100.27550710229647 42.27154915121116 H 0.0 **** 0.06
35516 C 57.7225320251992 57.100164742702084 55.891457457912544 C 0.0 **** -0.24
35517 H 58.18521776172861 57.754960860210595 56.62987259754008 H 0.0 **** 0.06
35518 H 56.75960815494736 57.514520918586136 55.59076389939042 H 0.0 **** 0.06
35519 H 57.57292891291917 56.111000275888436 56.32597629590169 H 0.0 **** 0.06
35520 H 58.372373271201695 57.020176916123184 55.01921703881796 H 0.0 **** 0.06
35521 C 19.240495409452592 68.94067255818467 64.89745673327826 C 0.0 **** -0.24
35522 H 20.272872131242025 69.24488342769027 65.071548802231 H 0.0 **** 0.06
35523 H 18.920283554606783 68.27164193460001 65.6958659820582 H 0.0 **** 0.06
35524 H 19.17082346624744 68.42424244131635 63.93936237411339 H 0.0 **** 0.06
35525 H 18.600016512911452 69.82238728716308 64.88219660901154 H 0.0 **** 0.06
35526 C 57.82078161759688 36.59917366799229 92.36248412074363 C 0.0 **** -0.24
35527 H 58.84507810686489 36.31666834690195 92.60590642722318 H 0.0 **** 0.06
35528 H 57.7356764425453 37.686301266135985 92.35322549951914 H 0.0 **** 0.06
35529 H 57.14340705560954 36.18745842550906 93.11066406441483 H 0.0 **** 0.06
35530 H 57.560081956613146 36.2060791789567 91.37929368364954 H 0.0 **** 0.06
35531 C 20.234796864148763 9.937541278500916 64.49441767439555 C 0.0 **** -0.24
35532 H 19.22805772683074 9.564872548027765 64.68106504807281 H 0.0 **** 0.06
35533 H 20.844803737090004 9.79750903629261 65.38738610041446 H 0.0 **** 0.06
35534 H 20.18929725129675 10.99833562617637 64.2473243311116 H 0.0 **** 0.06
35535 H 20.676284065962705 9.388979047865988 63.663002353482966 H 0.0 **** 0.06
35536 C 70.10815158069715 48.751751642093495 27.180958994842356 C 0.0 **** -0.24
35537 H 71.16603863735301 48.99365417785907 27.288029822235316 H 0.0 **** 0.06
35538 H 69.51588249935168 49.43891193397522 27.786455584950353 H 0.0 **** 0.06
35539 H 69.93454953416435 47.72916446372412 27.516174988710794 H 0.0 **** 0.06
35540 H 69.81900076047515 48.846099733591615 26.134230659108354 H 0.0 **** 0.06
35541 C 80.7857119133194 17.120728346259682 96.3921618155816 C 0.0 **** -0.24
35542 H 80.63771075620386 16.808739759691434 95.35802798585073 H 0.0 **** 0.06
35543 H 81.41782197022346 18.009067603585123 96.41698672552641 H 0.0 **** 0.06
35544 H 81.26633147620456 16.317098447633498 96.94876104389883 H 0.0 **** 0.06
35545 H 79.82028252187226 17.349038346412954 96.84420343261303 H 0.0 **** 0.06
35546 C 96.28996258442317 1.0017921890883486 77.11999896494814 C 0.0 **** -0.24
35547 H 96.0672465137435 1.965082944042706 77.58029833957443 H 0.0 **** 0.06
35548 H 96.42073383403707 1.1355454817355621 76.04534971780095 H 0.0 **** 0.06
35549 H 95.46668470383418 0.3128979791202937 77.30392327834818 H 0.0 **** 0.06
35550 H 97.20670683672068 0.5975920477627028 77.54938246568923 H 0.0 **** 0.06
35551 C 114.64765047889777 42.17750267992744 70.30640972298767 C 0.0 **** -0.24
35552 H 114.95719047292306 41.17909515761602 70.61319677993612 H 0.0 **** 0.06
35553 H 114.2329680369979 42.13674861416837 69.29851060902982 H 0.0 **** 0.06
35554 H 115.50989740740955 42.84441080555342 70.31797549357614 H 0.0 **** 0.06
35555 H 113.89027828232742 42.55111391019801 70.99624740400284 H 0.0 **** 0.06
35556 C 4.286211501132186 23.960737905281377 2.466134662298508 C 0.0 **** -0.24
35557 H 4.961149981198844 24.785120275028248 2.69233505594765 H 0.0 **** 0.06
35558 H 4.018256007434616 23.989949727340814 1.4091859472152084 H 0.0 **** 0.06
35559 H 3.3855238051987158 24.052445785146546 3.072917398418662 H 0.0 **** 0.06
35560 H 4.780997955484111 23.0150101751818 2.689294791705283 H 0.0 **** 0.06
35561 C 26.552438081788637 92.55674874568112 50.50943620088319 C 0.0 **** -0.24
35562 H 25.996017639318268 92.16093438475323 49.6594048543092 H 0.0 **** 0.06
35563 H 26.333326830661633 93.6192045105515 50.62419282259003 H 0.0 **** 0.06
35564 H 27.62040617780721 92.4227391628705 50.3377867451633 H 0.0 **** 0.06
35565 H 26.26036587079318 92.02551541970328 51.41438252297965 H 0.0 **** 0.06
35566 C 110.85819548563109 38.42724577100236 116.57585976668612 C 0.0 **** -0.24
35567 H 111.26147966660236 37.83819534790305 117.40010941706396 H 0.0 **** 0.06
35568 H 110.50355670347922 39.385553262402 116.9549059824968 H 0.0 **** 0.06
35569 H 110.03019032929828 37.888184799297875 116.11523876241932 H 0.0 **** 0.06
35570 H 111.6393954529833 38.595296421076796 115.83531571894173 H 0.0 **** 0.06
35571 C 70.46860799097331 7.212634514812265 46.48638459823013 C 0.0 **** -0.24
35572 H 71.40321640741504 6.771071301375173 46.142095565469475 H 0.0 **** 0.06
35573 H 70.39685908664285 8.238397915996842 46.124169841388294 H 0.0 **** 0.06
35574 H 70.44479709609686 7.209081761053753 47.57572767316 H 0.0 **** 0.06
35575 H 69.62959893787331 6.6322857631837735 46.10111435181142 H 0.0 **** 0.06
35576 C 17.224003415271056 79.35069939321397 56.875703490283634 C 0.0 **** -0.24
35577 H 16.981525833089908 78.52146607620642 57.54160873504096 H 0.0 **** 0.06
35578 H 18.16856381479784 79.14786622233188 56.37126786145868 H 0.0 **** 0.06
35579 H 17.31131899103101 80.26837693931958 57.45741981258778 H 0.0 **** 0.06
35580 H 16.43240615670238 79.46378779110532 56.1346327860311 H 0.0 **** 0.06
35581 C 53.272172775618465 50.85554535484749 95.19463292242227 C 0.0 **** -0.24
35582 H 52.587768958805384 50.28276201085822 95.82062144953844 H 0.0 **** 0.06
35583 H 53.51059265663948 51.79935911110627 95.68723991190822 H 0.0 **** 0.06
35584 H 52.8032100837886 51.05675185768297 94.23179551911102 H 0.0 **** 0.06
35585 H 54.18793610434506 50.28427396001243 95.04159534076376 H 0.0 **** 0.06
35586 C 15.803152281114173 51.28143038112185 4.375102441461792 C 0.0 **** -0.24
35587 H 16.38099357288313 50.408741072778525 4.071957696831873 H 0.0 **** 0.06
35588 H 16.411091694913747 52.17842485685017 4.258339738886406 H 0.0 **** 0.06
35589 H 15.506483366421548 51.176191003047705 5.418467751509155 H 0.0 **** 0.06
35590 H 14.912471354289679 51.36132739599887 3.7504353112911417 H 0.0 **** 0.06
35591 C 60.83259985115893 65.08322075241026 31.906529364776816 C 0.0 **** -0.24
35592 H 60.81979733414914 64.37307550865512 31.079548827546034 H 0.0 **** 0.06
35593 H 59.82280349606009 65.45480853143951 32.08274471743894 H 0.0 **** 0.06
35594 H 61.48897626657549 65.91657713015957 31.65720612519158 H 0.0 **** 0.06
35595 H 61.200097023735424 64.58706247197682 32.80538186421242 H 0.0 **** 0.06
35596 C 102.25079742470479 84.46185817939119 50.3929308571098 C 0.0 **** -0.24
35597 H 101.29476393831061 84.98002307128277 50.32526237645382 H 0.0 **** 0.06
35598 H 102.09418073252408 83.3919698347957 50.2566514113451 H 0.0 **** 0.06
35599 H 102.6947644970428 84.64318423780674 51.37212292466228 H 0.0 **** 0.06
35600 H 102.91965266094405 84.83283766690047 49.61578099539392 H 0.0 **** 0.06
35601 C 48.13317408599363 6.757858539461722 88.06401745921784 C 0.0 **** -0.24
35602 H 48.31791235797323 6.098600968513438 87.21621727218945 H 0.0 **** 0.06
35603 H 48.41086761005948 7.777803607330668 87.79834411916033 H 0.0 **** 0.06
35604 H 48.727965378286115 6.42913055729457 88.91583502108514 H 0.0 **** 0.06
35605 H 47.07505376898189 6.725282580666033 88.32477059912159 H 0.0 **** 0.06
35606 C 44.35566894656546 72.60181642681343 28.154274593458368 C 0.0 **** -0.24
35607 H 44.45554726056886 72.0264420057805 29.07461342265676 H 0.0 **** 0.06
35608 H 45.05193750615558 72.21859188043962 27.407979052401167 H 0.0 **** 0.06
35609 H 44.57818373664341 73.64958470120672 28.354823202606987 H 0.0 **** 0.06
35610 H 43.335658191623736 72.51247738568688 27.779293775654388 H 0.0 **** 0.06
35611 C 57.43174389987251 29.00720452346252 96.03271145562917 C 0.0 **** -0.24
35612 H 56.47965585005232 29.08228006595283 95.50770864391313 H 0.0 **** 0.06
35613 H 57.612789764896796 29.926243578568602 96.58952698843814 H 0.0 **** 0.06
35614 H 58.23395228847236 28.854675059510726 95.30992622186392 H 0.0 **** 0.06
35615 H 57.40039415128022 28.163356704804727 96.72276368783247 H 0.0 **** 0.06
35616 C 81.29474036543337 27.283609995931613 16.4383950402418 C 0.0 **** -0.24
35617 H 81.44454734773393 26.537930190784778 15.657443392045167 H 0.0 **** 0.06
35618 H 81.2428201362564 28.274749693420574 15.987846095093062 H 0.0 **** 0.06
35619 H 82.12745883410895 27.24565195526401 17.140641506262256 H 0.0 **** 0.06
35620 H 80.36412564540143 27.0734150473142 16.96632717623163 H 0.0 **** 0.06
35621 C 88.07191221047057 15.151016184838596 97.61198060726605 C 0.0 **** -0.24
35622 H 87.25626255423552 15.301777421712217 98.3191620931471 H 0.0 **** 0.06
35623 H 89.01796406846418 15.41224817857389 98.08664545686307 H 0.0 **** 0.06
35624 H 87.91616518262683 15.783056528640998 96.73787660072097 H 0.0 **** 0.06
35625 H 88.09622063207152 14.104797930044356 97.30384663350654 H 0.0 **** 0.06
35626 C 93.13306459297843 34.28670086426604 63.10028651063817 C 0.0 **** -0.24
35627 H 92.30859992482144 34.0108746993223 62.44278144993109 H 0.0 **** 0.06
35628 H 93.51958524200168 33.39430094878014 63.59210570345601 H 0.0 **** 0.06
35629 H 92.77795118044409 34.9924353631892 63.850745172491884 H 0.0 **** 0.06
35630 H 93.9255516984997 34.75057371811772 62.5123884148652 H 0.0 **** 0.06
35631 C 107.91512552358739 22.86792260628571 23.280365033391078 C 0.0 **** -0.24
35632 H 107.51815598503862 22.41737169958637 22.370815135226692 H 0.0 **** 0.06
35633 H 107.81821086306769 22.16345349899045 24.106823638269148 H 0.0 **** 0.06
35634 H 107.35854543395527 23.77629709702407 23.509913123234497 H 0.0 **** 0.06
35635 H 108.9678177907578 23.114594100902444 23.13409725449253 H 0.0 **** 0.06
35636 C 86.85429699476052 94.05533380972042 62.48038238375191 C 0.0 **** -0.24
35637 H 86.91188509772203 93.00919829332315 62.78145890579565 H 0.0 **** 0.06
35638 H 86.25379521578856 94.13987833737693 61.57409056521609 H 0.0 **** 0.06
35639 H 87.85780952890184 94.43363660133326 62.28820408692305 H 0.0 **** 0.06
35640 H 86.39280995349006 94.63767925999286 63.27834384605101 H 0.0 **** 0.06
35641 C 55.28226394871979 87.86482314717057 41.1466887428644 C 0.0 **** -0.24
35642 H 54.50638299055919 88.55890399682494 41.468027215608885 H 0.0 **** 0.06
35643 H 55.950832814666114 87.65501290154663 41.98243414504557 H 0.0 **** 0.06
35644 H 55.85003114929481 88.30771836422724 40.32841971825923 H 0.0 **** 0.06
35645 H 54.82107216399373 86.93701758334021 40.80809319873535 H 0.0 **** 0.06
35646 C 70.78975139912572 14.43007336194762 19.920171266150742 C 0.0 **** -0.24
35647 H 71.83173954672327 14.420348008550722 20.241018772292367 H 0.0 **** 0.06
35648 H 70.71997108499505 14.039559715997598 18.904546921469866 H 0.0 **** 0.06
35649 H 70.41207253417173 15.451564357816515 19.94435188740191 H 0.0 **** 0.06
35650 H 70.19826929538795 13.806912403946349 20.591038104511174 H 0.0 **** 0.06
35651 C 48.284206046208844 96.31985748626857 9.155619039495605 C 0.0 **** -0.24
35652 H 47.973222305852076 96.10300125600227 10.178193011848407 H 0.0 **** 0.06
35653 H 47.44265897384722 96.16591704990131 8.480177085364858 H 0.0 **** 0.06
35654 H 49.101957443205364 95.65596331619983 8.876842971824658 H 0.0 **** 0.06
35655 H 48.617258020088094 97.35572375101401 9.090201637607095 H 0.0 **** 0.06
35656 C 102.23011841131503 68.79911607107795 26.32223836617044 C 0.0 **** -0.24
35657 H 101.28979550493355 68.59219671205256 26.833042797112284 H 0.0 **** 0.06
35658 H 102.78418207747634 69.55913250926073 26.874102927945813 H 0.0 **** 0.06
35659 H 102.02420155478003 69.15919413601739 25.314227948083897 H 0.0 **** 0.06
35660 H 102.82157782470327 67.88557638067857 26.268174374583054 H 0.0 **** 0.06
35661 C 49.308763207240816 19.734016786947308 31.298033701385805 C 0.0 **** -0.24
35662 H 49.39571224279189 18.6549749313335 31.1683898085401 H 0.0 **** 0.06
35663 H 49.30167268342149 20.217713959323092 30.320972409725073 H 0.0 **** 0.06
35664 H 50.1560823083601 20.09869084863962 31.87777508599646 H 0.0 **** 0.06
35665 H 48.382627052201784 19.96339839387852 31.823496136169695 H 0.0 **** 0.06
35666 C 30.657711964165827 109.77822514087373 12.92247580138394 C 0.0 **** -0.24
35667 H 30.66018892221564 108.75468775386706 12.547897320751531 H 0.0 **** 0.06
35668 H 31.458570138567524 110.34117627867053 12.442776746314621 H 0.0 **** 0.06
35669 H 30.81365348946173 109.77074699945888 14.001644617763134 H 0.0 **** 0.06
35670 H 29.6988609325241 110.24540134957469 12.69741121941263 H 0.0 **** 0.06
35671 C 82.21487161158231 94.02909185697493 46.19091380339455 C 0.0 **** -0.24
35672 H 82.40380443233656 95.0431513031244 46.54499129282931 H 0.0 **** 0.06
35673 H 81.25710263286209 93.99914185289165 45.66971744098751 H 0.0 **** 0.06
35674 H 82.18779212766071 93.34669271296187 47.03956272271381 H 0.0 **** 0.06
35675 H 83.00910999473967 93.7290862399949 45.507085604715684 H 0.0 **** 0.06
35676 C 73.87094754476152 64.51619669280294 95.84147806521523 C 0.0 **** -0.24
35677 H 73.23711270334789 63.71115830971931 95.47119507406018 H 0.0 **** 0.06
35678 H 74.4260112935666 64.95300144390009 95.0105936708355 H 0.0 **** 0.06
35679 H 74.57051825955804 64.11921180631899 96.57728496781414 H 0.0 **** 0.06
35680 H 73.2508810409685 65.28256602383445 96.3057716170295 H 0.0 **** 0.06
35681 C 48.79247707249772 11.947812422343532 102.44704315033422 C 0.0 **** -0.24
35682 H 48.64198779776703 12.966813427540217 102.08935481654544 H 0.0 **** 0.06
35683 H 49.42498301896548 11.96476586409625 103.33495069634023 H 0.0 **** 0.06
35684 H 49.274973101122754 11.357546781553367 101.667826211403 H 0.0 **** 0.06
35685 H 47.827780657415786 11.504816669115542 102.69473158821089 H 0.0 **** 0.06
35686 C 82.81320620753104 103.93923263116903 74.8888901974118 C 0.0 **** -0.24
35687 H 82.77203453032251 104.77541537076797 74.19115008597433 H 0.0 **** 0.06
35688 H 82.94172862687356 104.31879914287117 75.90274681396207 H 0.0 **** 0.06
35689 H 83.65455106922502 103.29437067248477 74.63275173172556 H 0.0 **** 0.06
35690 H 81.8870164812696 103.36888560531702 74.82735356506444 H 0.0 **** 0.06
35691 C 42.62077964848851 98.12334110945827 21.878829464418313 C 0.0 **** -0.24
35692 H 42.07358986958201 99.06054578980803 21.976352028576894 H 0.0 **** 0.06
35693 H 43.61438116632257 98.23585026275168 22.311698534226345 H 0.0 **** 0.06
35694 H 42.71013185426199 97.86309382317273 20.823685136320083 H 0.0 **** 0.06
35695 H 42.08279748925884 97.33322048446965 22.402774659288287 H 0.0 **** 0.06
35696 C 19.48772806985812 116.75826301169388 2.4899697003766335 C 0.0 **** -0.24
35697 H 19.575608762618685 115.78739046330217 2.978998864175608 H 0.0 **** 0.06
35698 H 19.491248525308663 116.62137625814265 1.4077050833586213 H 0.0 **** 0.06
35699 H 20.328125221190646 117.38803054182756 2.7799531227736907 H 0.0 **** 0.06
35700 H 18.555161449344155 117.23419829904643 2.792796472670986 H 0.0 **** 0.06
35701 C 73.57536701628365 18.7352714397651 0.5589372494962959 C 0.0 **** -0.24
35702 H 73.54047587816498 17.673617786372347 0.31509903377335036 H 0.0 **** 0.06
35703 H 74.61385529220749 19.061456327534813 0.6116957376318481 H 0.0 **** 0.06
35704 H 73.09231792396548 18.90278061993 1.5224383178519076 H 0.0 **** 0.06
35705 H 73.05379123341638 19.302036238601914 -0.21160883419437937 H 0.0 **** 0.06
35706 C 105.19616308924915 16.86853812937989 18.53895920377792 C 0.0 **** -0.24
35707 H 105.64040213867355 16.31925840119045 19.369348535053433 H 0.0 **** 0.06
35708 H 104.38498102665551 16.2816992251226 18.108751474156804 H 0.0 **** 0.06
35709 H 105.9554019831767 17.052555952740946 17.77834579956877 H 0.0 **** 0.06
35710 H 104.8059063396675 17.81997023327298 18.900019550411884 H 0.0 **** 0.06
35711 C 4.847688338600108 41.46467409557172 71.74794543926348 C 0.0 **** -0.24
35712 H 4.715437993631099 41.67320448959353 72.80954982844506 H 0.0 **** 0.06
35713 H 5.759911444403258 41.94765002801614 71.39446509959731 H 0.0 **** 0.06
35714 H 3.993313975216438 41.85219506170998 71.19273563231923 H 0.0 **** 0.06
35715 H 4.923316665939126 40.38872604462486 71.59491264014602 H 0.0 **** 0.06
35716 C 29.306547636277486 106.17486689372492 77.77816197174957 C 0.0 **** -0.24
35717 H 28.267207243078076 106.05117496430012 77.47462812964179 H 0.0 **** 0.06
35718 H 29.903968069244115 105.36122363060943 77.36775925653109 H 0.0 **** 0.06
35719 H 29.37158139468687 106.16135349705905 78.86660169094003 H 0.0 **** 0.06
35720 H 29.68315240568404 107.12709892856586 77.40374241652916 H 0.0 **** 0.06
35721 C 110.38577139633136 116.30621036703008 15.200399428695903 C 0.0 **** -0.24
35722 H 110.89866065670456 116.94137512071029 14.478019113105887 H 0.0 **** 0.06
35723 H 111.10644248600218 115.92182349085977 15.922234506052746 H 0.0 **** 0.06
35724 H 109.91247376909165 115.47443535507512 14.679567791670294 H 0.0 **** 0.06
35725 H 109.62626786819847 116.88892099751797 15.720198995151307 H 0.0 **** 0.06
35726 C 97.66516220884503 8.28616733093574 74.78493606137351 C 0.0 **** -0.24
35727 H 97.7221203119208 7.3917917577568915 74.16401810541416 H 0.0 **** 0.06
35728 H 98.383026480859 9.02411072474601 74.42433863309853 H 0.0 **** 0.06
35729 H 97.89767073510828 8.026919918393574 75.81738290170918 H 0.0 **** 0.06
35730 H 96.65910985163072 8.701088342780054 74.73205775410469 H 0.0 **** 0.06
35731 C 23.579639787099946 93.53512520181883 78.21747519391235 C 0.0 **** -0.24
35732 H 23.473145077418625 92.71562924263492 78.92729991691203 H 0.0 **** 0.06
35733 H 24.59882766156602 93.91865104929599 78.2550506716698 H 0.0 **** 0.06
35734 H 22.881452204369936 94.3314924864838 78.47540583939801 H 0.0 **** 0.06
35735 H 23.36305657642657 93.17428084871375 77.21144880508419 H 0.0 **** 0.06
35736 C 28.42912819137456 109.70338417858669 71.07242362035007 C 0.0 **** -0.24
35737 H 28.5554960833594 109.09731754846977 71.96909764975263 H 0.0 **** 0.06
35738 H 27.97470432568747 109.09904633874 70.28699843561029 H 0.0 **** 0.06
35739 H 29.401933235454294 110.06391580786823 70.7374411110736 H 0.0 **** 0.06
35740 H 27.783769057513666 110.55393870032944 71.29656125467554 H 0.0 **** 0.06
35741 C 10.135212049570555 107.07792150349624 87.80417296485183 C 0.0 **** -0.24
35742 H 10.00747995258044 105.99676666589625 87.7480685203123 H 0.0 **** 0.06
35743 H 11.182509079437637 107.3293619537308 87.63387425145444 H 0.0 **** 0.06
35744 H 9.833421267976632 107.42846635040172 88.79103039371171 H 0.0 **** 0.06
35745 H 9.518218047273848 107.55713205067218 87.04434298877737 H 0.0 **** 0.06
35746 C 31.699841531545218 108.3123775255414 87.04911385027847 C 0.0 **** -0.24
35747 H 30.612413875618415 108.3637656958955 87.10020488555656 H 0.0 **** 0.06
35748 H 32.01896409386072 108.4015455786668 86.00997964328334 H 0.0 **** 0.06
35749 H 32.03730169477265 107.35718919434959 87.45204050012595 H 0.0 **** 0.06
35750 H 32.13019492698074 109.12564109345433 87.63285715533596 H 0.0 **** 0.06
35751 C 15.147209069567367 64.68239211170024 105.42529953621559 C 0.0 **** -0.24
35752 H 14.122771115238365 64.32803843226549 105.54034440959023 H 0.0 **** 0.06
35753 H 15.173134916695346 65.76509634794641 105.55320348804719 H 0.0 **** 0.06
35754 H 15.511191505094558 64.42420065273919 104.43059508246307 H 0.0 **** 0.06
35755 H 15.780307563048197 64.21162227729963 106.17781602217019 H 0.0 **** 0.06
35756 C 86.06004664112828 112.10127924771433 86.66453345271182 C 0.0 **** -0.24
35757 H 86.18606085661727 112.31461074314836 87.72632208301673 H 0.0 **** 0.06
35758 H 86.72795112169445 111.29044271653208 86.3747738012853 H 0.0 **** 0.06
35759 H 86.29800793627388 112.99370031626967 86.08477308389715 H 0.0 **** 0.06
35760 H 85.02713470821917 111.80882045700179 86.47321221902354 H 0.0 **** 0.06
35761 C 96.55397995357572 103.46951398544726 20.11285715275926 C 0.0 **** -0.24
35762 H 95.73211989134074 103.86095686139336 19.514696318244546 H 0.0 **** 0.06
35763 H 96.8528491408371 102.4945644902387 19.72610046822126 H 0.0 **** 0.06
35764 H 96.23321341613368 103.36740733852142 21.149083946084147 H 0.0 **** 0.06
35765 H 97.40052484063528 104.15544807172859 20.059516190474994 H 0.0 **** 0.06
35766 C 18.89743019813167 8.51970533307103 80.47825149030032 C 0.0 **** -0.24
35767 H 18.055421914908028 9.017785398678441 79.9988318463686 H 0.0 **** 0.06
35768 H 18.549670705225168 7.997466899508737 81.37107424739418 H 0.0 **** 0.06
35769 H 19.645779644523948 9.260071225625722 80.75861971146603 H 0.0 **** 0.06
35770 H 19.336937544284293 7.801384609998195 79.78541986677911 H 0.0 **** 0.06
35771 C 60.679436892199476 16.953340841957896 88.29438711694425 C 0.0 **** -0.24
35772 H 59.73119852360921 17.45388611508298 88.49162661686884 H 0.0 **** 0.06
35773 H 61.2534346601812 16.884887756744632 89.21811470873158 H 0.0 **** 0.06
35774 H 61.243843790054854 17.523179424852145 87.55645839993082 H 0.0 **** 0.06
35775 H 60.487662369225575 15.951107598157137 87.9095259783013 H 0.0 **** 0.06
35776 C 20.592304045597814 34.48132675453883 99.52872465195912 C 0.0 **** -0.24
35777 H 21.628955772851143 34.376872154960296 99.85097994509317 H 0.0 **** 0.06
35778 H 19.935530718435515 34.00797217906339 100.25879535144833 H 0.0 **** 0.06
35779 H 20.464182633642395 34.00093461714246 98.5584137235468 H 0.0 **** 0.06
35780 H 20.341653933003727 35.53877053285774 99.44715801240767 H 0.0 **** 0.06
35781 C 103.73799428114648 81.44227976725494 11.424162674724784 C 0.0 **** -0.24
35782 H 103.0115497286101 82.13069674810242 11.855434411229623 H 0.0 **** 0.06
35783 H 104.74631482837174 81.81222410880832 11.61635258859718 H 0.0 **** 0.06
35784 H 103.57645730196299 81.36945773019431 10.348560641907056 H 0.0 **** 0.06
35785 H 103.6189352913195 80.45776823753408 11.876855711487565 H 0.0 **** 0.06
35786 C 53.06836609140413 46.99796020499412 95.45896467473335 C 0.0 **** -0.24
35787 H 52.53524114469462 47.507557596547706 94.65659179854683 H 0.0 **** 0.06
35788 H 53.62451751786955 46.15550320457316 95.04732796518849 H 0.0 **** 0.06
35789 H 52.35243304079182 46.63478064927261 96.19739242163078 H 0.0 **** 0.06
35790 H 53.75951415978477 47.69264936430975 95.93483882342659 H 0.0 **** 0.06
35791 C 38.752323164287276 96.04614048318166 109.54043931361292 C 0.0 **** -0.24
35792 H 38.7415808800196 95.11096673120741 110.09941119564064 H 0.0 **** 0.06
35793 H 39.3996721613245 96.76386110791091 110.0446211879709 H 0.0 **** 0.06
35794 H 37.73977747765335 96.44685205681253 109.48355796564454 H 0.0 **** 0.06
35795 H 39.12670949378514 95.8619224214593 108.53287511414203 H 0.0 **** 0.06
35796 C 39.96253705655454 42.87905447402039 96.608234671231 C 0.0 **** -0.24
35797 H 39.38895384785286 41.98218516469916 96.37742387118303 H 0.0 **** 0.06
35798 H 39.757127653254855 43.644551420349785 95.85943802839984 H 0.0 **** 0.06
35799 H 41.02680216289386 42.6415962566773 96.60272102543956 H 0.0 **** 0.06
35800 H 39.677724891701104 43.248640223517555 97.59382253002894 H 0.0 **** 0.06
35801 C 46.38776568300568 91.64431226160775 57.25636373556992 C 0.0 **** -0.24
35802 H 46.50781665543346 91.1077264291697 58.19698975920434 H 0.0 **** 0.06
35803 H 47.016533743291404 92.53479733883455 57.263437206964085 H 0.0 **** 0.06
35804 H 45.34440906125349 91.93589235883013 57.13598943600684 H 0.0 **** 0.06
35805 H 46.68238891217544 90.99724195218886 56.42971799770095 H 0.0 **** 0.06
35806 C 24.04534976190382 50.011549705978325 90.32739795143402 C 0.0 **** -0.24
35807 H 23.44278405208459 49.19126220544536 89.9363455352921 H 0.0 **** 0.06
35808 H 24.141995150829587 49.90764963875002 91.40867935787247 H 0.0 **** 0.06
35809 H 23.56115993062346 50.95962957218603 90.09581282321184 H 0.0 **** 0.06
35810 H 25.03430327789758 49.985552157036196 89.86923415331108 H 0.0 **** 0.06
35811 C 54.52474983248683 54.614331709943315 61.86754841474155 C 0.0 **** -0.24
35812 H 54.375494234997404 54.231349665636515 60.856977483168635 H 0.0 **** 0.06
35813 H 55.381890140753995 54.1159762777888 62.32082795775713 H 0.0 **** 0.06
35814 H 53.63323777823314 54.42066067004069 62.46418210525363 H 0.0 **** 0.06
35815 H 54.70795769362937 55.68735212219016 61.82558464084505 H 0.0 **** 0.06
35816 C 14.7184280269927 74.24915541825345 69.92701762592725 C 0.0 **** -0.24
35817 H 14.853492540088759 73.96359654318474 70.97041481416903 H 0.0 **** 0.06
35818 H 14.967360064909084 73.40340864465824 69.28540072419494 H 0.0 **** 0.06
35819 H 15.374294497735569 75.0877336980881 69.69290950779373 H 0.0 **** 0.06
35820 H 13.681766048293198 74.53996393641654 69.76109826168326 H 0.0 **** 0.06
35821 C 49.597181790485735 32.857166459375996 16.50741849854822 C 0.0 **** -0.24
35822 H 50.25414179708325 33.71457898118439 16.361068621785066 H 0.0 **** 0.06
35823 H 49.33153612428228 32.432706228203514 15.538322548346898 H 0.0 **** 0.06
35824 H 48.692282572400856 33.177271182042986 17.02390793220748 H 0.0 **** 0.06
35825 H 50.110231892932546 32.10438395004933 17.105575691593913 H 0.0 **** 0.06
35826 C 92.22498792904736 111.92497658042208 101.03673628891511 C 0.0 **** -0.24
35827 H 92.89083254834694 111.25351220052809 101.57946046665302 H 0.0 **** 0.06
35828 H 92.15666225125483 112.87496240639143 101.56749757313025 H 0.0 **** 0.06
35829 H 91.23530727531966 111.4758582093962 100.96519082968354 H 0.0 **** 0.06
35830 H 92.6200737288496 112.09555850447609 100.03546711347269 H 0.0 **** 0.06
35831 C 25.621778857443907 42.622795739781964 71.83037435925695 C 0.0 **** -0.24
35832 H 26.295799371049732 41.89168608014168 72.27432801832583 H 0.0 **** 0.06
35833 H 24.591236962890164 42.28294049710033 71.94388610495213 H 0.0 **** 0.06
35834 H 25.85359991380553 42.734757433823376 70.77155024708384 H 0.0 **** 0.06
35835 H 25.744954605922807 43.583210857397916 72.332559184074 H 0.0 **** 0.06
35836 C 51.55919569873502 12.796648296852226 113.67873229651502 C 0.0 **** -0.24
35837 H 52.407012749428944 12.119761818102972 113.56939814656994 H 0.0 **** 0.06
35838 H 51.51226614124836 13.156656324398824 114.70661546910543 H 0.0 **** 0.06
35839 H 50.638766211002135 12.267133845875549 113.43500518605236 H 0.0 **** 0.06
35840 H 51.68123542490205 13.642622069762382 113.00230222086043 H 0.0 **** 0.06
35841 C 66.6359709152515 9.497088219243082 27.060675133863725 C 0.0 **** -0.24
35842 H 66.96251748831395 10.487285686570885 26.743595883390185 H 0.0 **** 0.06
35843 H 65.57146796950991 9.381793868410568 26.854600622454768 H 0.0 **** 0.06
35844 H 66.81437840416567 9.380787820818611 28.129795784801217 H 0.0 **** 0.06
35845 H 67.19664961161004 8.738222492141063 26.51551723544695 H 0.0 **** 0.06
35846 C 104.56377450373452 101.9190926627843 98.02024401970249 C 0.0 **** -0.24
35847 H 105.3028509884225 101.90373998847502 97.21864732303055 H 0.0 **** 0.06
35848 H 104.63296296493533 102.8631996199097 98.55973722814201 H 0.0 **** 0.06
35849 H 104.75414417144637 101.0929770892858 98.7057930317564 H 0.0 **** 0.06
35850 H 103.56565768346019 101.81519221495262 97.59476373439787 H 0.0 **** 0.06
35851 C 103.29974260918996 65.4824380067407 0.2775346511686365 C 0.0 **** -0.24
35852 H 103.62313959910605 64.5363623368224 0.7110668293481979 H 0.0 **** 0.06
35853 H 103.07185509760362 66.18892457692789 1.0765478258605583 H 0.0 **** 0.06
35854 H 102.40903490666048 65.31884525573128 -0.3296220040953841 H 0.0 **** 0.06
35855 H 104.09714154247001 65.88656456896214 -0.3473395096954164 H 0.0 **** 0.06
35856 C 67.4151574613262 13.206981467293744 52.24690810522823 C 0.0 **** -0.24
35857 H 67.39947736035708 13.012606959628187 51.174282971934694 H 0.0 **** 0.06
35858 H 67.62763650499284 12.280031057375282 52.78098642079029 H 0.0 **** 0.06
35859 H 66.44579830204646 13.592852121031697 52.56094722744251 H 0.0 **** 0.06
35860 H 68.1894496136648 13.941023461417998 52.47149443291584 H 0.0 **** 0.06
35861 C 28.73204730506069 24.99706209088245 77.88358361570118 C 0.0 **** -0.24
35862 H 28.215991689446923 24.549941490035735 77.0338173251553 H 0.0 **** 0.06
35863 H 29.351644493243953 25.824603864755474 77.53768779656698 H 0.0 **** 0.06
35864 H 29.362077757057932 24.246747601744744 78.36196609906526 H 0.0 **** 0.06
35865 H 27.998783950273662 25.366030190262563 78.6006424366353 H 0.0 **** 0.06
35866 C 1.8975688704317122 26.615078355798488 45.95972541405369 C 0.0 **** -0.24
35867 H 2.4267238984977553 26.95474885324171 45.068784374518096 H 0.0 **** 0.06
35868 H 1.3059260208903538 27.435646033311684 46.36545239587551 H 0.0 **** 0.06
35869 H 2.620653382796206 26.283631691078952 46.70570525631652 H 0.0 **** 0.06
35870 H 1.2398257577090703 25.786391097187277 45.69760065792772 H 0.0 **** 0.06
35871 C 114.96255353714389 28.753336099331705 30.91826973199977 C 0.0 **** -0.24
35872 H 115.62930763483695 27.896156595502617 31.015363882171727 H 0.0 **** 0.06
35873 H 114.93151807307126 29.073011308622284 29.87558154442408 H 0.0 **** 0.06
35874 H 115.33020699053766 29.57179792009501 31.538690766380654 H 0.0 **** 0.06
35875 H 113.96104395510463 28.473534643406197 31.24300129767707 H 0.0 **** 0.06
35876 C 114.75287848055811 52.18260639718389 14.35773374874475 C 0.0 **** -0.24
35877 H 115.02288438033497 53.02306778562661 13.718478382203415 H 0.0 **** 0.06
35878 H 115.61443007886635 51.52488513630368 14.476483915364327 H 0.0 **** 0.06
35879 H 113.93230927305893 51.629400504524426 13.902226000113558 H 0.0 **** 0.06
35880 H 114.44220245059248 52.555433408960454 15.334318847384509 H 0.0 **** 0.06
35881 C 8.416072201724205 11.599750687326775 34.67311702987948 C 0.0 **** -0.24
35882 H 9.5047664211992 11.598880077594572 34.62864171785472 H 0.0 **** 0.06
35883 H 8.042578675305553 12.587876031110596 34.40324689118572 H 0.0 **** 0.06
35884 H 8.093510548359195 11.353169032368498 35.68501893848202 H 0.0 **** 0.06
35885 H 8.02373759254742 10.86026487393002 33.976266148587996 H 0.0 **** 0.06
35886 C 70.94980945063213 74.8602125830869 50.29139210188305 C 0.0 **** -0.24
35887 H 70.14315933709372 74.69823545861016 51.00662143036038 H 0.0 **** 0.06
35888 H 71.49697004283735 73.92854504695165 50.144130734997816 H 0.0 **** 0.06
35889 H 71.62755137094652 75.62369989425471 50.675487243162806 H 0.0 **** 0.06
35890 H 70.53172620083683 75.19004288590025 49.34102151288215 H 0.0 **** 0.06
35891 C 37.822033195717104 100.00689131489594 20.20844182107595 C 0.0 **** -0.24
35892 H 37.49319368800234 100.1947123007908 19.18688773252859 H 0.0 **** 0.06
35893 H 37.22581024819745 99.20288873223251 20.639814052817542 H 0.0 **** 0.06
35894 H 37.69514818916855 100.91194386234758 20.802888685702897 H 0.0 **** 0.06
35895 H 38.87282159053603 99.71846663968478 20.204853214079833 H 0.0 **** 0.06
35896 C 68.44170030811057 25.73983313619911 16.760747218535357 C 0.0 **** -0.24
35897 H 68.85649377937051 25.428106359896162 17.720038539052922 H 0.0 **** 0.06
35898 H 68.6819913704262 24.993822559584714 16.002426401850357 H 0.0 **** 0.06
35899 H 68.86931533364327 26.700987084514367 16.474786622064556 H 0.0 **** 0.06
35900 H 67.35935116733532 25.833966022410323 16.84743221207256 H 0.0 **** 0.06
35901 C 99.48938475321796 106.35857896997567 81.44162528531228 C 0.0 **** -0.24
35902 H 100.45765105509514 106.15793268083843 80.98319383766625 H 0.0 **** 0.06
35903 H 99.53821696472139 106.13218351305778 82.50673536285257 H 0.0 **** 0.06
35904 H 98.72863928761626 105.73556602158814 80.97088099183838 H 0.0 **** 0.06
35905 H 99.23542275161117 107.41000615200173 81.30450786035476 H 0.0 **** 0.06
35906 C 19.8639344565961 28.756638407671197 45.647131408705945 C 0.0 **** -0.24
35907 H 19.51405838232739 27.751217501789156 45.41258608008441 H 0.0 **** 0.06
35908 H 19.51108301455301 29.45133145568058 44.88427398467071 H 0.0 **** 0.06
35909 H 20.953876309106676 28.766416692824805 45.670735199714386 H 0.0 **** 0.06
35910 H 19.476833069760374 29.058056462081353 46.62005411388721 H 0.0 **** 0.06
35911 C 47.64736238309547 2.679801367127368 64.58938953654348 C 0.0 **** -0.24
35912 H 48.578717001591656 2.623704795858629 64.02487046584292 H 0.0 **** 0.06
35913 H 47.10258855309786 3.5786987111148107 64.30269293765207 H 0.0 **** 0.06
35914 H 47.87124296152189 2.713993787203293 65.65590459393479 H 0.0 **** 0.06
35915 H 47.03974086218966 1.8014187853626424 64.37416399572868 H 0.0 **** 0.06
35916 C 100.7588985493953 77.27659962610423 20.96928869792086 C 0.0 **** -0.24
35917 H 100.86561946749876 78.3146239408305 20.65697789855784 H 0.0 **** 0.06
35918 H 100.66895919171426 77.23078431582803 22.05479128099782 H 0.0 **** 0.06
35919 H 101.63407748575281 76.7098883292683 20.652324867923568 H 0.0 **** 0.06
35920 H 99.86585701468442 76.84935851275614 20.51217069718976 H 0.0 **** 0.06
35921 C 89.9247282918634 83.03131333971146 12.737918495952954 C 0.0 **** -0.24
35922 H 89.43042182867364 83.00464485268571 13.709085775113195 H 0.0 **** 0.06
35923 H 91.0047902942018 82.9980560648116 12.878769317218303 H 0.0 **** 0.06
35924 H 89.65372707201152 83.95087404913764 12.21816425765832 H 0.0 **** 0.06
35925 H 89.60852591641665 82.17330612566485 12.145150741533989 H 0.0 **** 0.06
35926 C 110.86169350284518 67.35521332729132 30.102112373839248 C 0.0 **** -0.24
35927 H 110.04617581133925 67.40094331216176 30.82308363698189 H 0.0 **** 0.06
35928 H 110.60954097685311 67.95961751397618 29.23014809008413 H 0.0 **** 0.06
35929 H 111.01712776405611 66.32072509785752 29.794643183469475 H 0.0 **** 0.06
35930 H 111.77265834013599 67.73908431071294 30.55950170564978 H 0.0 **** 0.06
35931 C 1.4808671153237896 74.53294082211778 7.335369261101555 C 0.0 **** -0.24
35932 H 2.498883904462403 74.18342047936181 7.507402145187182 H 0.0 **** 0.06
35933 H 0.7946279845840678 73.9880278726472 7.983319625328932 H 0.0 **** 0.06
35934 H 1.2098759920818907 74.36209026463752 6.292782597513067 H 0.0 **** 0.06
35935 H 1.4204209895405455 75.59898170991633 7.555089702697481 H 0.0 **** 0.06
35936 C 113.8703267029914 81.73797347601871 81.28152409549227 C 0.0 **** -0.24
35937 H 113.14986360316809 82.4026466743916 81.75847423980622 H 0.0 **** 0.06
35938 H 113.65296308979572 80.70679304866411 81.55930265871976 H 0.0 **** 0.06
35939 H 114.876495535695 81.99912865375734 81.60884075556075 H 0.0 **** 0.06
35940 H 113.80116049901858 81.84527693042637 80.19876234737961 H 0.0 **** 0.06
35941 C 13.649257274845553 6.947422572681347 96.35798053347227 C 0.0 **** -0.24
35942 H 12.880171522761156 7.254445060431522 95.65064529062974 H 0.0 **** 0.06
35943 H 14.59726517296162 7.41340856371103 96.08853653666205 H 0.0 **** 0.06
35944 H 13.7562553554353 5.863211171144911 96.33007010753519 H 0.0 **** 0.06
35945 H 13.363339292548073 7.25961776863025 97.36279448471936 H 0.0 **** 0.06
35946 C 88.59024715116485 113.87352515812734 13.732333915401668 C 0.0 **** -0.24
35947 H 89.06895660400707 114.59867288748023 14.39053449505073 H 0.0 **** 0.06
35948 H 88.12864753635128 113.08936087539979 14.33243235630681 H 0.0 **** 0.06
35949 H 89.3386913316393 113.43448226694045 13.072668384447184 H 0.0 **** 0.06
35950 H 87.82753334858296 114.37304975719258 13.136664814229647 H 0.0 **** 0.06
35951 C 76.3041350046802 114.21679657183154 66.93278326390987 C 0.0 **** -0.24
35952 H 76.66143526537749 113.85599067024383 67.89710352728815 H 0.0 **** 0.06
35953 H 76.799840207225 113.66500073227957 66.13272464341355 H 0.0 **** 0.06
35954 H 76.52956436118686 115.2787343431501 66.83575372611864 H 0.0 **** 0.06
35955 H 75.22705154982305 114.06529556322378 66.86433167297196 H 0.0 **** 0.06
35956 C 6.873047124783795 4.49411291766927 52.69561274033762 C 0.0 **** -0.24
35957 H 7.021095648879452 5.212272775004635 53.501347155721845 H 0.0 **** 0.06
35958 H 5.8839740664791975 4.043945868089452 52.78745037152143 H 0.0 **** 0.06
35959 H 7.63377822998541 3.7152920010481694 52.758072270804064 H 0.0 **** 0.06
35960 H 6.953447367706644 5.0035346807131305 51.73568555830644 H 0.0 **** 0.06
35961 C 110.68081174347569 12.235244056753594 109.9498990953142 C 0.0 **** -0.24
35962 H 109.62377696941658 12.363929344788282 110.1835817237728 H 0.0 **** 0.06
35963 H 111.06415555339385 11.359424777353393 110.47405376341462 H 0.0 **** 0.06
35964 H 111.23224506619945 13.1196850125177 110.26533422142639 H 0.0 **** 0.06
35965 H 110.80048439536012 12.095815746588762 108.87494782364591 H 0.0 **** 0.06
35966 C 40.38651621948239 22.81668569117474 30.270909618103786 C 0.0 **** -0.24
35967 H 41.18338114933525 23.162519418125726 30.929854473773318 H 0.0 **** 0.06
35968 H 39.934846448047125 23.672539240563594 29.769245299991155 H 0.0 **** 0.06
35969 H 39.629781828791806 22.297931224643634 30.858284926503813 H 0.0 **** 0.06
35970 H 40.80025487136737 22.135993594116428 29.526631052199946 H 0.0 **** 0.06
35971 C 12.899781858330044 24.528710599124295 1.438954495868444 C 0.0 **** -0.24
35972 H 11.8501615008785 24.491354743000983 1.1481012909723205 H 0.0 **** 0.06
35973 H 13.504786677961448 24.02627215725255 0.6840811570792624 H 0.0 **** 0.06
35974 H 13.028925412146151 24.030001380467127 2.399600648419252 H 0.0 **** 0.06
35975 H 13.215190958363223 25.56830460508297 1.52493321588382 H 0.0 **** 0.06
35976 C 79.26700009992277 75.94232788127098 24.869862763392973 C 0.0 **** -0.24
35977 H 79.17921400305727 76.43314591844964 23.900911689073297 H 0.0 **** 0.06
35978 H 78.43757121843663 75.24683922339355 25.002019041249454 H 0.0 **** 0.06
35979 H 79.2419724530169 76.69283708495092 25.660744291655938 H 0.0 **** 0.06
35980 H 80.21001372243205 75.39707228227272 24.916032451099795 H 0.0 **** 0.06
35981 C 86.02643994628556 74.53103947706379 10.489316649441236 C 0.0 **** -0.24
35982 H 85.37186799856417 74.23704210629282 11.309002564881922 H 0.0 **** 0.06
35983 H 86.94223990511173 74.96385507536522 10.892778046659785 H 0.0 **** 0.06
35984 H 85.51973237280507 75.26796740437624 9.866555375952373 H 0.0 **** 0.06
35985 H 86.27191950866134 73.65529332222076 9.888930610270648 H 0.0 **** 0.06
35986 C 65.34345795299231 77.06125389938057 0.5065064365745826 C 0.0 **** -0.24
35987 H 66.30511547372166 77.01527427959178 -0.0028368168123051873 H 0.0 **** 0.06
35988 H 65.50125339248046 77.29632181279254 1.5595110383143265 H 0.0 **** 0.06
35989 H 64.83982918905934 76.0986294774927 0.4205167198051356 H 0.0 **** 0.06
35990 H 64.72748968662344 77.83576939114351 0.04984485798424032 H 0.0 **** 0.06
35991 C 28.400894604219275 68.12959083557382 72.52597729478029 C 0.0 **** -0.24
35992 H 28.93560671721235 67.18344820957083 72.59763582196928 H 0.0 **** 0.06
35993 H 27.617672734205996 68.16320267290115 73.28333039258627 H 0.0 **** 0.06
35994 H 27.953284022009882 68.22060033593397 71.53644761576146 H 0.0 **** 0.06
35995 H 29.09772205562149 68.95268536671654 72.68665369504902 H 0.0 **** 0.06
35996 C 90.38033704322541 36.09901805771747 7.587282870968522 C 0.0 **** -0.24
35997 H 90.97634680887944 36.75613126931091 8.220712078296543 H 0.0 **** 0.06
35998 H 91.02410283007069 35.335620669579555 7.149003195186893 H 0.0 **** 0.06
35999 H 89.91586535573049 36.6836017789189 6.793986700825073 H 0.0 **** 0.06
36000 H 89.60615458043006 35.621855336998294 8.187969314847805 H 0.0 **** 0.06
36001 C 56.35694068795243 53.52877995294682 115.9463920715019 C 0.0 **** -0.24
36002 H 57.086278900235726 52.76348507257643 115.67685244766642 H 0.0 **** 0.06
36003 H 56.8721024341539 54.47052184291198 116.13506517382665 H 0.0 **** 0.06
36004 H 55.82228293422969 53.2198539826648 116.8436036914243 H 0.0 **** 0.06
36005 H 55.649391268497226 53.658334166005545 115.12736551716188 H 0.0 **** 0.06
36006 C 30.324041674106738 112.51153163450908 35.32684908164774 C 0.0 **** -0.24
36007 H 30.988602236075735 112.29291166385008 34.491364493840706 H 0.0 **** 0.06
36008 H 30.343680612801066 113.58102918818197 35.535962090709006 H 0.0 **** 0.06
36009 H 30.657118301889966 111.96276341931924 36.208338973728246 H 0.0 **** 0.06
36010 H 29.3087922627754 112.20873083308607 35.07237468411677 H 0.0 **** 0.06
36011 C 46.463332946959696 94.09345333294965 59.898109723546746 C 0.0 **** -0.24
36012 H 45.39652929323475 94.31946715447555 59.881899901062134 H 0.0 **** 0.06
36013 H 46.6040931487143 93.01916738587482 60.01359212362488 H 0.0 **** 0.06
36014 H 46.93177021395226 94.61426728158887 60.73245092941509 H 0.0 **** 0.06
36015 H 46.917659404661975 94.42095660842762 58.962695338014505 H 0.0 **** 0.06
36016 C 39.56002688934859 35.649721073835714 44.77550207577908 C 0.0 **** -0.24
36017 H 40.36023533172687 35.763328305056234 44.0447368863965 H 0.0 **** 0.06
36018 H 39.99030291881911 35.57108720257314 45.77432501718137 H 0.0 **** 0.06
36019 H 38.9904048897792 34.74751223513453 44.55277140495264 H 0.0 **** 0.06
36020 H 38.90115946072069 36.51683127144157 44.73024085552508 H 0.0 **** 0.06
36021 C 8.3985271540096 96.03190734335652 70.87327379656926 C 0.0 **** -0.24
36022 H 7.637993586486246 96.71163456015034 70.48987774829538 H 0.0 **** 0.06
36023 H 7.959345221717342 95.38632367626508 71.63434276179737 H 0.0 **** 0.06
36024 H 9.213696304716123 96.60858247039738 71.31043855117281 H 0.0 **** 0.06
36025 H 8.784007583303804 95.4212523555787 70.0566751785812 H 0.0 **** 0.06
36026 C 0.39535747571924773 7.946517462943589 40.30287653653596 C 0.0 **** -0.24
36027 H -0.488861890450659 7.3233284750310474 40.17114752805588 H 0.0 **** 0.06
36028 H 1.0957953310503115 7.759843527260301 39.48870049181872 H 0.0 **** 0.06
36029 H 0.8705542316667287 7.706897880412512 41.253928292434324 H 0.0 **** 0.06
36030 H 0.10318472988958227 8.996897809038984 40.29694231104244 H 0.0 **** 0.06
36031 C 111.1745591134929 97.89181696356337 18.884521625303364 C 0.0 **** -0.24
36032 H 111.34182705581878 96.83691257800126 19.10368407768084 H 0.0 **** 0.06
36033 H 111.45277455385295 98.09550251533148 17.850468274047103 H 0.0 **** 0.06
36034 H 111.78373351839875 98.50202441439063 19.55169431924776 H 0.0 **** 0.06
36035 H 110.12199980382871 98.1307177282851 19.03261692898053 H 0.0 **** 0.06
36036 C 64.79888759602414 101.66521686003844 77.86326406137206 C 0.0 **** -0.24
36037 H 64.05701823381898 102.45134061965237 78.00268870663467 H 0.0 **** 0.06
36038 H 64.69406676158101 100.92109951734685 78.65335328848894 H 0.0 **** 0.06
36039 H 65.79877431333799 102.09862019788838 77.90123931369976 H 0.0 **** 0.06
36040 H 64.64547167890038 101.18979755513823 76.89354961326413 H 0.0 **** 0.06
36041 C 32.0212590241681 21.738916591867607 103.89906417933156 C 0.0 **** -0.24
36042 H 32.05633999449168 20.93567179880361 103.16264165736678 H 0.0 **** 0.06
36043 H 30.982643871500045 21.97044717974508 104.13337607862758 H 0.0 **** 0.06
36044 H 32.508876958735016 22.62507058209313 103.4928944911054 H 0.0 **** 0.06
36045 H 32.537473775766784 21.422706009680084 104.80515916706361 H 0.0 **** 0.06
36046 C 34.532237473471 112.28266515737265 0.1720408645630922 C 0.0 **** -0.24
36047 H 34.506325913947386 112.08460473490052 1.2433837604611764 H 0.0 **** 0.06
36048 H 33.52053440097812 112.23637061141078 -0.2311857263075705 H 0.0 **** 0.06
36049 H 35.15487884249994 111.53516700580379 -0.32015649279060376 H 0.0 **** 0.06
36050 H 34.94869574053058 113.27454907413798 -0.0029870227227579704 H 0.0 **** 0.06
36051 C 46.57777692930324 34.03195547231343 114.17232361490875 C 0.0 **** -0.24
36052 H 47.07763548959969 33.932688256701915 115.13549668604816 H 0.0 **** 0.06
36053 H 47.24750631220852 34.520878675057055 113.46399410747992 H 0.0 **** 0.06
36054 H 45.675135705201235 34.63115498907833 114.29135603588432 H 0.0 **** 0.06
36055 H 46.311164597347506 33.04384477943373 113.79729283245379 H 0.0 **** 0.06
36056 C 45.955206359308704 67.12481611758531 79.97543355875749 C 0.0 **** -0.24
36057 H 44.94946350480279 66.74581369181197 79.79454568093385 H 0.0 **** 0.06
36058 H 46.06232987548242 67.38160618954831 81.02998296826914 H 0.0 **** 0.06
36059 H 46.12345256282788 68.01338395256968 79.36628379840471 H 0.0 **** 0.06
36060 H 46.68438372087655 66.35993705889075 79.71154671558526 H 0.0 **** 0.06
36061 C 10.944711522204074 52.707391686793656 101.99720932711827 C 0.0 **** -0.24
36062 H 10.250040186151011 52.18831845255936 101.33853752180238 H 0.0 **** 0.06
36063 H 11.512223598312886 51.97769757590445 102.57479180139032 H 0.0 **** 0.06
36064 H 10.387680989602444 53.35413015159699 102.6753216525176 H 0.0 **** 0.06
36065 H 11.628820313738089 53.3115953426709 101.40070022026339 H 0.0 **** 0.06
36066 C 49.53195507779134 27.092626749716196 49.97337810596329 C 0.0 **** -0.24
36067 H 48.817013812519065 26.45424889451408 49.45448731245392 H 0.0 **** 0.06
36068 H 49.332900888102586 28.135873991163784 49.72656717726859 H 0.0 **** 0.06
36069 H 50.54385007094129 26.83216579555696 49.66344010599096 H 0.0 **** 0.06
36070 H 49.433112164960676 26.947891884061676 51.050019627276384 H 0.0 **** 0.06
36071 C 82.08164780221625 82.36796935638807 87.86701038313902 C 0.0 **** -0.24
36072 H 82.514066925496 82.56815486683882 88.84714017352832 H 0.0 **** 0.06
36073 H 82.86562178058426 82.39660258331367 87.11098469480979 H 0.0 **** 0.06
36074 H 81.32959168881138 83.12512251024921 87.64077647260805 H 0.0 **** 0.06
36075 H 81.61569156830257 81.3825531884336 87.87057876915048 H 0.0 **** 0.06
36076 C 59.695755169420636 31.697529031262917 78.75861436683874 C 0.0 **** -0.24
36077 H 58.89628391752444 31.212346702672363 79.31809069321733 H 0.0 **** 0.06
36078 H 59.27447505667942 32.48268437834713 78.13037544457256 H 0.0 **** 0.06
36079 H 60.199261716060164 30.960902355357547 78.1328610288245 H 0.0 **** 0.06
36080 H 60.41209167716545 32.133935001979154 79.4551585793294 H 0.0 **** 0.06
36081 C 26.460825004254787 74.43057290155264 18.085189474550933 C 0.0 **** -0.24
36082 H 27.0726083341479 74.55653957005998 17.192190879149635 H 0.0 **** 0.06
36083 H 26.321036122000294 75.3980905414846 18.568701342331053 H 0.0 **** 0.06
36084 H 26.96001112818135 73.7491149756425 18.774695330717694 H 0.0 **** 0.06
36085 H 25.49070405157869 74.01995670354441 17.806113118314126 H 0.0 **** 0.06
36086 C 25.924407087256363 80.5660343185285 27.840332996379693 C 0.0 **** -0.24
36087 H 25.269730397726555 81.29455410739453 27.361347241434167 H 0.0 **** 0.06
36088 H 26.7004434617101 80.26016779053654 27.138109937529215 H 0.0 **** 0.06
36089 H 25.34075384955387 79.69470075817131 28.13945966253911 H 0.0 **** 0.06
36090 H 26.38488298956014 81.01399329507976 28.71955567962955 H 0.0 **** 0.06
36091 C 96.4974332475798 113.71911035945504 111.65574823138061 C 0.0 **** -0.24
36092 H 96.08975202425273 114.69894776219371 111.90206628426691 H 0.0 **** 0.06
36093 H 95.70868478529832 113.09124330234073 111.24069423894997 H 0.0 **** 0.06
36094 H 96.89524907417854 113.25396728184046 112.55783662326951 H 0.0 **** 0.06
36095 H 97.29680466731301 113.83166306630665 110.92260005489823 H 0.0 **** 0.06
36096 C 42.65453709819812 54.821930605849786 90.47507984981843 C 0.0 **** -0.24
36097 H 42.06820874888382 54.283446878431846 89.73025750133854 H 0.0 **** 0.06
36098 H 42.25105182283181 55.82704804091321 90.59778087023437 H 0.0 **** 0.06
36099 H 43.69152109258275 54.88357731244048 90.1450952444327 H 0.0 **** 0.06
36100 H 42.6069496061767 54.2914346445138 91.42622781232865 H 0.0 **** 0.06
36101 C 64.75855748144207 61.892215311401685 9.484493609323593 C 0.0 **** -0.24
36102 H 65.27496272145419 62.2805641514436 8.606695929390298 H 0.0 **** 0.06
36103 H 64.12274407472682 61.05718373995171 9.190666213799588 H 0.0 **** 0.06
36104 H 64.14495242155974 62.67988721823227 9.92273191724486 H 0.0 **** 0.06
36105 H 65.49129585265243 61.55281670573805 10.216037853952614 H 0.0 **** 0.06
36106 C 65.30663418282842 0.06886464467746123 30.795502658167948 C 0.0 **** -0.24
36107 H 64.45455814774897 0.23703455417296482 30.13688571593886 H 0.0 **** 0.06
36108 H 65.82174340863935 -0.8437034607343321 30.495041478105904 H 0.0 **** 0.06
36109 H 64.95804132202244 -0.032059789712604925 31.823192896788385 H 0.0 **** 0.06
36110 H 65.99278996752679 0.9128308443735875 30.725215718384206 H 0.0 **** 0.06
36111 C 6.29580536468427 30.25211762676372 82.13076235530781 C 0.0 **** -0.24
36112 H 5.820846582431017 30.559503092458215 81.19901168942408 H 0.0 **** 0.06
36113 H 6.924513007497339 29.380690397844035 81.94755958028006 H 0.0 **** 0.06
36114 H 5.528341309443292 30.00044072354177 82.86284543552546 H 0.0 **** 0.06
36115 H 6.908488767881224 31.0695859779766 82.51269767600064 H 0.0 **** 0.06
36116 C 113.51537515194067 110.65165167985344 26.82966751250774 C 0.0 **** -0.24
36117 H 112.70422129203929 109.99005687904992 26.526058082250984 H 0.0 **** 0.06
36118 H 113.43835999500517 110.85534710990311 27.89833765926045 H 0.0 **** 0.06
36119 H 113.44767034897454 111.58777501809578 26.275065724505566 H 0.0 **** 0.06
36120 H 114.47196570948216 110.17280368240239 26.618897245501046 H 0.0 **** 0.06
36121 C 12.724960219491464 57.55431808824483 9.938739926931248 C 0.0 **** -0.24
36122 H 12.802108728792263 57.776948131471585 8.874631886590311 H 0.0 **** 0.06
36123 H 11.845733351545618 58.049918405416605 10.350796265006988 H 0.0 **** 0.06
36124 H 13.618341595636323 57.91349700536364 10.450977440416562 H 0.0 **** 0.06
36125 H 12.63514227376126 56.4774960323393 10.077883364812969 H 0.0 **** 0.06
36126 C 28.053703603755366 24.691921871898998 8.195746227596956 C 0.0 **** -0.24
36127 H 28.89427853986976 24.37428156676436 7.579616112172204 H 0.0 **** 0.06
36128 H 27.428510995982947 25.382593306842494 7.6303489280551275 H 0.0 **** 0.06
36129 H 28.427541997204514 25.18904117791839 9.091219428937421 H 0.0 **** 0.06
36130 H 27.464914207800376 23.820283119876827 8.483412633265218 H 0.0 **** 0.06
36131 C 91.09151727058631 89.47892572811733 107.38573579220258 C 0.0 **** -0.24
36132 H 92.07055671506959 89.48686367056592 107.86289783367704 H 0.0 **** 0.06
36133 H 91.14426608842828 90.0144233362135 106.43720487236644 H 0.0 **** 0.06
36134 H 90.36548019310052 89.9646010627514 108.03770864083606 H 0.0 **** 0.06
36135 H 90.78385692526507 88.44873062699631 107.20470770839077 H 0.0 **** 0.06
36136 C 116.38130866359263 35.93310934535241 17.65647756968795 C 0.0 **** -0.24
36137 H 116.67223157937698 36.921382691225446 17.2997078325279 H 0.0 **** 0.06
36138 H 115.30482862194192 35.80641379427687 17.536552640061103 H 0.0 **** 0.06
36139 H 116.64398043624524 35.83659597883096 18.710111137714165 H 0.0 **** 0.06
36140 H 116.90410349248691 35.17025178251276 17.079887725096114 H 0.0 **** 0.06
36141 C 72.32983034838341 16.001790460827806 92.83421846723309 C 0.0 **** -0.24
36142 H 72.5659864640833 16.51435476851691 91.90180006716369 H 0.0 **** 0.06
36143 H 71.90697149869999 16.714524198171716 93.54292082622283 H 0.0 **** 0.06
36144 H 73.23952646244581 15.57105532300227 93.25155662382465 H 0.0 **** 0.06
36145 H 71.60777790566152 15.209244157257444 92.64081598075043 H 0.0 **** 0.06
36146 C 29.878044127187536 65.66778438790959 84.97848740954899 C 0.0 **** -0.24
36147 H 30.654852276480767 65.5669399716569 84.22038881407838 H 0.0 **** 0.06
36148 H 29.96592446417847 66.64243201652383 85.45953737352892 H 0.0 **** 0.06
36149 H 29.99457055941636 64.88184939730303 85.72468694415696 H 0.0 **** 0.06
36150 H 28.898531837875424 65.58092047740288 84.50903213015016 H 0.0 **** 0.06
36151 C 23.41276686983545 84.95203136411737 21.897783905201194 C 0.0 **** -0.24
36152 H 23.93860502024434 84.68239897470644 22.813665762325527 H 0.0 **** 0.06
36153 H 23.955300891938506 84.55570953827035 21.038444674418628 H 0.0 **** 0.06
36154 H 23.351981576239183 86.03799424691562 21.819663554439103 H 0.0 **** 0.06
36155 H 22.40730241840909 84.53209234094206 21.918140646609857 H 0.0 **** 0.06
36156 C 48.50599999792354 16.421166424924508 71.06109122208878 C 0.0 **** -0.24
36157 H 47.43998779390347 16.33808456955714 70.85061005537901 H 0.0 **** 0.06
36158 H 48.71544236813071 15.999672064421986 72.04427348742837 H 0.0 **** 0.06
36159 H 48.79766238337919 17.472037262120296 71.04627266698083 H 0.0 **** 0.06
36160 H 49.06970042952679 15.876671553506526 70.30376031347754 H 0.0 **** 0.06
36161 C 40.0240513936687 75.89724499744128 104.79158963532228 C 0.0 **** -0.24
36162 H 40.77356587122435 76.19460106062775 105.52519606964796 H 0.0 **** 0.06
36163 H 39.862547546942636 76.71253333387187 104.08585636846743 H 0.0 **** 0.06
36164 H 39.088265551375514 75.66671676058513 105.30121850146924 H 0.0 **** 0.06
36165 H 40.370893168608546 75.0149112205169 104.25437290572034 H 0.0 **** 0.06
36166 C 6.67183552682277 31.94332874339142 27.442572487898644 C 0.0 **** -0.24
36167 H 7.631091898641657 32.150796272437276 27.917296018381876 H 0.0 **** 0.06
36168 H 6.2765487617672004 31.000330149782258 27.820118494912663 H 0.0 **** 0.06
36169 H 6.80946466104173 31.875093263165468 26.3635594702492 H 0.0 **** 0.06
36170 H 5.973344901452908 32.74861924430769 27.6691822831161 H 0.0 **** 0.06
36171 C 11.683773556155504 101.68178752123822 111.31382344525437 C 0.0 **** -0.24
36172 H 11.881434653090146 102.74143102703135 111.4711626123688 H 0.0 **** 0.06
36173 H 10.624712586304344 101.53914949309703 111.09447364572203 H 0.0 **** 0.06
36174 H 11.946321171712551 101.12517325958368 112.21336570016841 H 0.0 **** 0.06
36175 H 12.280346417748607 101.32111261965429 110.47544080822932 H 0.0 **** 0.06
36176 C 19.823747449142417 61.60844945694334 5.900814660920105 C 0.0 **** -0.24
36177 H 20.668747846917512 61.21991589795261 6.469651186710397 H 0.0 **** 0.06
36178 H 19.008591191862763 61.85312060044905 6.58119339667218 H 0.0 **** 0.06
36179 H 19.48986937422933 60.854954108129554 5.1873336406555755 H 0.0 **** 0.06
36180 H 20.13116444739606 62.50653650989188 5.363657805904387 H 0.0 **** 0.06
36181 C 80.49171279659475 91.32258360514041 68.38100164923856 C 0.0 **** -0.24
36182 H 79.41979837526753 91.20882675169233 68.21879861122656 H 0.0 **** 0.06
36183 H 81.02708980122549 90.56332900460515 67.81120970491665 H 0.0 **** 0.06
36184 H 80.71248528820513 91.20440156914 69.44172002035776 H 0.0 **** 0.06
36185 H 80.80557183898361 92.31359321761829 68.0528562158211 H 0.0 **** 0.06
36186 C 16.496963123240814 89.51684369386734 31.931453670932655 C 0.0 **** -0.24
36187 H 16.464843289223452 89.41721836142659 30.846139836680038 H 0.0 **** 0.06
36188 H 16.921116300647515 88.61152315706224 32.36728718493552 H 0.0 **** 0.06
36189 H 15.487172698339474 89.6650417087096 32.31290557598206 H 0.0 **** 0.06
36190 H 17.116188319259827 90.37321421540705 32.198643972862556 H 0.0 **** 0.06
36191 C 108.94211622934748 34.9474779994909 79.39074310348246 C 0.0 **** -0.24
36192 H 107.98070254835966 35.45742633778218 79.46038831926307 H 0.0 **** 0.06
36193 H 109.13693533990394 34.411093139991024 80.31984256403143 H 0.0 **** 0.06
36194 H 109.73075088084838 35.68015733122573 79.22078922093715 H 0.0 **** 0.06
36195 H 108.91814766093606 34.24014555997043 78.56164582074769 H 0.0 **** 0.06
36196 C 64.13063734540253 26.68383903911166 27.106341649751016 C 0.0 **** -0.24
36197 H 63.50928428228939 26.89417867188638 26.23647355014407 H 0.0 **** 0.06
36198 H 63.756162030824406 25.794141650222798 27.612365113405303 H 0.0 **** 0.06
36199 H 64.0991572671575 27.532110581334678 27.78949852166204 H 0.0 **** 0.06
36200 H 65.15854958921702 26.513727804423922 26.78497955882233 H 0.0 **** 0.06
36201 C 89.22326626992253 12.42040292807826 33.44924639677083 C 0.0 **** -0.24
36202 H 90.13010221054205 13.024137832937072 33.485228462072826 H 0.0 **** 0.06
36203 H 89.45209034467041 11.402358901053162 33.76259253254896 H 0.0 **** 0.06
36204 H 88.83588363987269 12.409524122706841 32.43072527090529 H 0.0 **** 0.06
36205 H 88.47614685995569 12.848440577440385 34.11770531943858 H 0.0 **** 0.06
36206 C 36.90141710310054 85.3597920409004 46.11093243866276 C 0.0 **** -0.24
36207 H 37.85174194307531 85.43901428580281 45.58185251054908 H 0.0 **** 0.06
36208 H 36.86936955949219 84.41873751958863 46.65996277006991 H 0.0 **** 0.06
36209 H 36.082734776667095 85.39006102070869 45.39100669197444 H 0.0 **** 0.06
36210 H 36.803656433871424 86.19231628392612 46.80779125585099 H 0.0 **** 0.06
36211 C 40.00803435434801 86.16779960052261 71.84330554755067 C 0.0 **** -0.24
36212 H 39.24089449594628 85.39392401827493 71.87350484447282 H 0.0 **** 0.06
36213 H 39.60186371041653 87.09805251212276 72.24157046380793 H 0.0 **** 0.06
36214 H 40.32717824730339 86.32251826509207 70.81212353880002 H 0.0 **** 0.06
36215 H 40.86193606076286 85.85680602031186 72.44506449177669 H 0.0 **** 0.06
36216 C 73.5377302472894 84.07464982430503 96.61197113822723 C 0.0 **** -0.24
36217 H 74.01573869744078 83.20445740730213 97.06013512133194 H 0.0 **** 0.06
36218 H 73.6152353544613 84.92241144786695 97.29369192526173 H 0.0 **** 0.06
36219 H 72.48662675623322 83.8549827479024 96.4237961825639 H 0.0 **** 0.06
36220 H 74.03225481169204 84.31792594458813 95.67095189470473 H 0.0 **** 0.06
36221 C 81.49540508328678 8.862307413127013 92.15989722546888 C 0.0 **** -0.24
36222 H 81.78638563043941 8.126399698671577 92.90937378488584 H 0.0 **** 0.06
36223 H 81.2949071780096 9.816743840553329 92.6479594488045 H 0.0 **** 0.06
36224 H 80.59707647934869 8.521644962553694 91.64607067978682 H 0.0 **** 0.06
36225 H 82.30325336387816 8.984936115800792 91.43914396231744 H 0.0 **** 0.06
36226 C 115.5995731118151 2.933494892088433 15.663513556659893 C 0.0 **** -0.24
36227 H 115.38257343621842 3.995727267558948 15.549656175447893 H 0.0 **** 0.06
36228 H 114.7677019328488 2.349201996534191 15.26806164170273 H 0.0 **** 0.06
36229 H 115.73652940034813 2.7023518124982786 16.719657859936575 H 0.0 **** 0.06
36230 H 116.50904320056212 2.6882453769604524 15.115883439844737 H 0.0 **** 0.06
36231 C 5.899813217350015 113.61334466329282 46.89488451169507 C 0.0 **** -0.24
36232 H 5.144263993597477 112.83271381165156 46.98399014376787 H 0.0 **** 0.06
36233 H 5.483619337992948 114.56099656769199 47.236405340161696 H 0.0 **** 0.06
36234 H 6.206877152278835 113.70476694112553 45.853277751654105 H 0.0 **** 0.06
36235 H 6.763646268224349 113.35302287962759 47.506734172916254 H 0.0 **** 0.06
36236 C 57.36338816118491 102.58245507830955 60.25604493934333 C 0.0 **** -0.24
36237 H 57.56804915940317 101.95130748299113 59.391315763544775 H 0.0 **** 0.06
36238 H 56.9711969714435 103.5422739898041 59.91940461204147 H 0.0 **** 0.06
36239 H 58.285151196072256 102.74287229704717 60.81541082899428 H 0.0 **** 0.06
36240 H 56.629592506455076 102.09361614694225 60.896391224123896 H 0.0 **** 0.06
36241 C 84.75660928935 92.5674779964668 101.79154466339375 C 0.0 **** -0.24
36242 H 83.83463008912784 92.26021645730287 101.29777277712111 H 0.0 **** 0.06
36243 H 85.56416812174368 92.60684859936472 101.05937340591996 H 0.0 **** 0.06
36244 H 85.00685734324856 91.84820660423276 102.57122827121648 H 0.0 **** 0.06
36245 H 84.61960382985288 93.55333446881002 102.23609893166952 H 0.0 **** 0.06
36246 C 36.773902760119455 56.52428693468988 107.40005322910275 C 0.0 **** -0.24
36247 H 37.67075620208155 56.59560328159455 106.78465104316766 H 0.0 **** 0.06
36248 H 35.979159761540075 56.04209987803813 106.83029607809817 H 0.0 **** 0.06
36249 H 36.45517232848398 57.52380683357393 107.69459491927645 H 0.0 **** 0.06
36250 H 36.991036839211304 55.93515875818531 108.29138245141672 H 0.0 **** 0.06
36251 C 42.57522574829109 80.81122967309398 81.9416293215535 C 0.0 **** -0.24
36252 H 43.643741018231765 81.02709588793326 81.9089806592365 H 0.0 **** 0.06
36253 H 42.084965473855675 81.27823402679269 81.0874690564579 H 0.0 **** 0.06
36254 H 42.15359480376438 81.20839357522843 82.86491645950164 H 0.0 **** 0.06
36255 H 42.42121930374961 79.73363833863775 81.90472687450591 H 0.0 **** 0.06
36256 C 110.39411399221916 101.08556260541107 5.6356734222404725 C 0.0 **** -0.24
36257 H 111.03383782867667 100.21569701948016 5.7846910108501675 H 0.0 **** 0.06
36258 H 109.43133110503976 100.91530026178157 6.117883783941181 H 0.0 **** 0.06
36259 H 110.24190645659378 101.24532928263275 4.567721407987449 H 0.0 **** 0.06
36260 H 110.86865598860177 101.96530447812535 6.07014100960123 H 0.0 **** 0.06
36261 C 48.704936479681095 9.819698222119488 3.196746252918672 C 0.0 **** -0.24
36262 H 48.20399808263928 9.849341751207785 4.163411056152626 H 0.0 **** 0.06
36263 H 48.6490671811837 8.810560762863698 2.7883650781091944 H 0.0 **** 0.06
36264 H 49.74972557956312 10.104680789371812 3.3202235185362383 H 0.0 **** 0.06
36265 H 48.217172830432546 10.516021307271213 2.5133511637975516 H 0.0 **** 0.06
36266 C 93.09509464948994 6.139392071949601 7.052290700691572 C 0.0 **** -0.24
36267 H 92.48939957391005 6.11286677692317 7.958774521807953 H 0.0 **** 0.06
36268 H 93.34476326631108 5.122251446447194 6.751517608953549 H 0.0 **** 0.06
36269 H 94.01150227725495 6.696874082133718 7.244906404687072 H 0.0 **** 0.06
36270 H 92.53357910642771 6.627391302083424 6.254610873700386 H 0.0 **** 0.06
36271 C 73.63692491137567 25.93026821651558 88.9636853608707 C 0.0 **** -0.24
36272 H 74.35932303232619 26.724351424016696 88.77812753295026 H 0.0 **** 0.06
36273 H 74.0364784630724 24.98335835654575 88.60001701352826 H 0.0 **** 0.06
36274 H 72.70693185788872 26.156364267780837 88.44164754024814 H 0.0 **** 0.06
36275 H 73.44484930532917 25.8571415557806 90.03354719556219 H 0.0 **** 0.06
36276 C 87.09958014625329 101.24245306741173 64.28348720497542 C 0.0 **** -0.24
36277 H 86.03376868086377 101.33221556914961 64.06759434960651 H 0.0 **** 0.06
36278 H 87.32164396684894 101.74133224257497 65.22664687999142 H 0.0 **** 0.06
36279 H 87.67160276549117 101.70861204690746 63.4810254209103 H 0.0 **** 0.06
36280 H 87.36786275392859 100.18834398340456 64.35738899521203 H 0.0 **** 0.06
36281 C 16.101334628668596 51.130832035624536 86.13503976554452 C 0.0 **** -0.24
36282 H 15.916100096973885 50.233579124099776 86.72641054928272 H 0.0 **** 0.06
36283 H 16.080281532923262 52.00439261918976 86.78691526128264 H 0.0 **** 0.06
36284 H 15.331174285184055 51.22775723310704 85.37014925869866 H 0.0 **** 0.06
36285 H 17.07924782003778 51.05490625060284 85.6585819101451 H 0.0 **** 0.06
36286 C 91.39216269994003 106.18871199761261 113.07689400316806 C 0.0 **** -0.24
36287 H 90.49850350815174 106.81259356044248 113.04533369235261 H 0.0 **** 0.06
36288 H 91.27324911247013 105.34985256312518 112.39091339838322 H 0.0 **** 0.06
36289 H 91.53692782244588 105.81336227470302 114.08979606822825 H 0.0 **** 0.06
36290 H 92.25829144567169 106.78008528419625 112.78123617510822 H 0.0 **** 0.06
36291 C 22.096499747273157 106.69994297631251 54.20442093547763 C 0.0 **** -0.24
36292 H 21.60801891920707 107.28164776526367 53.422809796084124 H 0.0 **** 0.06
36293 H 21.379486075402667 106.47766511244456 54.99404163419785 H 0.0 **** 0.06
36294 H 22.927592950011217 107.27335707527453 54.617155023353504 H 0.0 **** 0.06
36295 H 22.473662369884835 105.76819486728618 53.78140101249586 H 0.0 **** 0.06
36296 C 49.392488059390786 9.140192183732598 16.734163795062983 C 0.0 **** -0.24
36297 H 49.20122530291408 10.171682180164712 17.03115192344174 H 0.0 **** 0.06
36298 H 50.35254642867952 9.083056268954099 16.2195323930938 H 0.0 **** 0.06
36299 H 48.60057373676776 8.80048815358641 16.066731524008276 H 0.0 **** 0.06
36300 H 49.416886924807244 8.5067427605129 17.62094815264129 H 0.0 **** 0.06
36301 C 7.44226279628451 5.506831664428574 0.7792896786677019 C 0.0 **** -0.24
36302 H 8.362836358761157 6.010508399875604 1.0726903890712194 H 0.0 **** 0.06
36303 H 7.637531041706708 4.442593754496485 0.64327124501329 H 0.0 **** 0.06
36304 H 7.07654760802383 5.931457922224851 -0.1562080347925665 H 0.0 **** 0.06
36305 H 6.6900157878791475 5.642368073502354 1.5568173795476312 H 0.0 **** 0.06
36306 C 71.15314353349495 38.689488617493396 84.11234628687484 C 0.0 **** -0.24
36307 H 70.21258627117552 39.097672900423845 84.48323256908989 H 0.0 **** 0.06
36308 H 71.6478459898228 39.43084030534163 83.48423708973758 H 0.0 **** 0.06
36309 H 70.95405015018395 37.791916173930076 83.52666334367106 H 0.0 **** 0.06
36310 H 71.796867551328 38.43858319679367 84.95463409244203 H 0.0 **** 0.06
36311 C 32.61899922817841 113.36418031645007 6.389370532458628 C 0.0 **** -0.24
36312 H 33.57822723047954 113.46393852769594 6.8990841846536455 H 0.0 **** 0.06
36313 H 32.788751339566375 113.1019489734856 5.345223084722846 H 0.0 **** 0.06
36314 H 32.07922368188227 114.30931164248932 6.443878076723934 H 0.0 **** 0.06
36315 H 32.03221563008313 112.58229565053324 6.870538164364035 H 0.0 **** 0.06
36316 C 27.40175309082815 25.759283494582235 66.15608071637774 C 0.0 **** -0.24
36317 H 26.68777933817433 25.013002206024254 65.80689779245478 H 0.0 **** 0.06
36318 H 28.090955278480905 25.298856491062082 66.86465134808066 H 0.0 **** 0.06
36319 H 26.865272458235765 26.571977297282274 66.64615856720926 H 0.0 **** 0.06
36320 H 27.961703815069797 26.151777961991826 65.30761315104272 H 0.0 **** 0.06
36321 C 31.593363540878038 90.18642570176246 10.265382789714693 C 0.0 **** -0.24
36322 H 32.08999537204918 91.06884236862106 10.669326643611157 H 0.0 **** 0.06
36323 H 31.970705324684204 89.98518507076835 9.26199381073792 H 0.0 **** 0.06
36324 H 30.5189313489594 90.36268411624462 10.220982752724126 H 0.0 **** 0.06
36325 H 31.795540855593387 89.33016845321606 10.908415285412218 H 0.0 **** 0.06
36326 C 74.32085142581695 77.46300385055687 85.13674524594813 C 0.0 **** -0.24
36327 H 73.33406685296666 77.17015860333208 85.49471285141485 H 0.0 **** 0.06
36328 H 75.07966799188637 77.10522174624847 85.83327693966675 H 0.0 **** 0.06
36329 H 74.37380156255657 78.54954352646786 85.06747198312726 H 0.0 **** 0.06
36330 H 74.49480555734704 77.02693980873622 84.15348026349596 H 0.0 **** 0.06
36331 C 11.378081807770855 59.52043656962457 86.96504280143836 C 0.0 **** -0.24
36332 H 11.765046102633448 60.18779971089207 87.73534472884594 H 0.0 **** 0.06
36333 H 11.206461357363992 60.086361255989964 86.04900695126693 H 0.0 **** 0.06
36334 H 10.43983557951617 59.08075706561045 87.30314619485745 H 0.0 **** 0.06
36335 H 12.102338899093809 58.728867128550554 86.77276318506705 H 0.0 **** 0.06
36336 C 70.24716005102036 45.89558290687882 114.464745515436 C 0.0 **** -0.24
36337 H 71.04005473390939 45.51033175047943 115.10642501267837 H 0.0 **** 0.06
36338 H 69.2794955626567 45.70439708349472 114.928469977058 H 0.0 **** 0.06
36339 H 70.29028585476723 45.39699445880239 113.49557794241474 H 0.0 **** 0.06
36340 H 70.38021117044491 46.96855169966394 114.32683856250205 H 0.0 **** 0.06
36341 C 6.191216780983723 30.218927327903202 7.543911243671614 C 0.0 **** -0.24
36342 H 5.589407068859842 30.88561835027255 8.160974511646344 H 0.0 **** 0.06
36343 H 5.787719525708184 30.199219437202487 6.53081667066551 H 0.0 **** 0.06
36344 H 6.167960865767043 29.21405111898858 7.96485886307083 H 0.0 **** 0.06
36345 H 7.220787377788099 30.578653029510775 7.518203544243624 H 0.0 **** 0.06
36346 C 35.791594473149615 81.80991540630308 59.67540416995206 C 0.0 **** -0.24
36347 H 34.87436167137906 81.99098815681285 60.23570017005915 H 0.0 **** 0.06
36348 H 36.42186025894378 81.11168023958956 60.22572010484586 H 0.0 **** 0.06
36349 H 36.32418628825059 82.75081270459754 59.53830502091773 H 0.0 **** 0.06
36350 H 35.54502867697758 81.38688198835104 58.701102341072584 H 0.0 **** 0.06
36351 C 93.57026861278871 104.18208828456582 50.431748676849296 C 0.0 **** -0.24
36352 H 93.22482779065942 103.49526897029975 49.65995352730377 H 0.0 **** 0.06
36353 H 93.31586290227816 103.78324625444924 51.413749560726956 H 0.0 **** 0.06
36354 H 93.08935425899597 105.15167849113311 50.29648496222856 H 0.0 **** 0.06
36355 H 94.65176052525234 104.29902722074743 50.355962475263055 H 0.0 **** 0.06
36356 C 46.125725950950454 30.823406813491573 0.07372870641082052 C 0.0 **** -0.24
36357 H 45.10140929460139 30.47313073000052 -0.055325721825830954 H 0.0 **** 0.06
36358 H 46.81459346451902 29.99022416204346 -0.06582124650572219 H 0.0 **** 0.06
36359 H 46.24541118560587 31.231050324308683 1.0777049008849424 H 0.0 **** 0.06
36360 H 46.33909606520482 31.599716019815276 -0.6614816114350264 H 0.0 **** 0.06
36361 C 42.82326141004153 26.43834021036514 82.80733464037797 C 0.0 **** -0.24
36362 H 42.71698201591362 27.520315136854492 82.886384754734 H 0.0 **** 0.06
36363 H 43.572433447694586 26.09441729699148 83.5206741597585 H 0.0 **** 0.06
36364 H 43.13708265017567 26.176786966399447 81.7963276429393 H 0.0 **** 0.06
36365 H 41.8674633879172 25.962549056327845 83.02513923437056 H 0.0 **** 0.06
36366 C 40.617879109141086 80.49119175010634 36.38434233459401 C 0.0 **** -0.24
36367 H 39.8790593654324 80.46523430156299 35.584114559373745 H 0.0 **** 0.06
36368 H 40.184841319272266 80.0693089321569 37.292482328730145 H 0.0 **** 0.06
36369 H 40.91730719362215 81.52240340073067 36.5698370299136 H 0.0 **** 0.06
36370 H 41.49026301286065 79.90617770483388 36.092075517807814 H 0.0 **** 0.06
36371 C 70.32412856371195 56.66184461742031 4.244576294428192 C 0.0 **** -0.24
36372 H 69.69592469272504 56.4541462741064 3.3787216738506682 H 0.0 **** 0.06
36373 H 70.9527044894275 55.79536169018473 4.454287311834237 H 0.0 **** 0.06
36374 H 69.69217074711332 56.870677900091714 5.1085838314130605 H 0.0 **** 0.06
36375 H 70.95357612064242 57.527077789884295 4.037902001466691 H 0.0 **** 0.06
36376 C 59.9796585604031 20.536021248297946 4.197918197784674 C 0.0 **** -0.24
36377 H 61.00571860718038 20.898125456015418 4.138510702953624 H 0.0 **** 0.06
36378 H 59.557158630778055 20.798532353366095 5.168049488781037 H 0.0 **** 0.06
36379 H 59.96987637651173 19.452847936411715 4.078273616819956 H 0.0 **** 0.06
36380 H 59.38588062714212 20.99457924739888 3.4068389825839915 H 0.0 **** 0.06
36381 C 78.62722462725117 113.85399282676609 30.919052092177026 C 0.0 **** -0.24
36382 H 79.6423063697604 114.20941469275719 31.09405573307606 H 0.0 **** 0.06
36383 H 78.56139915647029 112.79781705376486 31.183367816464738 H 0.0 **** 0.06
36384 H 78.37349694194486 113.98243038366364 29.866215878569676 H 0.0 **** 0.06
36385 H 77.93169604082922 114.4263091768788 31.532568940597628 H 0.0 **** 0.06
36386 C 83.31410569989839 41.81645441985776 2.3766016111625277 C 0.0 **** -0.24
36387 H 83.0797744720613 40.81422557842981 2.734169981743321 H 0.0 **** 0.06
36388 H 83.14013046605598 42.5370079178 3.17680304684842 H 0.0 **** 0.06
36389 H 82.67640650521639 42.058256029577905 1.5260472559852474 H 0.0 **** 0.06
36390 H 84.35973055713524 41.85793065020525 2.070898537995845 H 0.0 **** 0.06
36391 C 92.29505929456442 59.816875676254746 19.272046074999906 C 0.0 **** -0.24
36392 H 91.96460783332299 60.77379305900721 19.67596304156629 H 0.0 **** 0.06
36393 H 91.4343942710556 59.272108707005565 18.88134958003502 H 0.0 **** 0.06
36394 H 92.76691266280164 59.23293758518738 20.061780602517814 H 0.0 **** 0.06
36395 H 93.01161043158541 59.98994253545312 18.468994204670082 H 0.0 **** 0.06
36396 C 65.20220512556693 53.45838719980247 12.292465139194547 C 0.0 **** -0.24
36397 H 65.89379060338979 54.22082182257685 12.653659064462971 H 0.0 **** 0.06
36398 H 65.44849507583751 53.204478229251606 11.261635163280516 H 0.0 **** 0.06
36399 H 64.18262699079548 53.841986924414755 12.339259248504817 H 0.0 **** 0.06
36400 H 65.28470978620169 52.56833410063899 12.915557730386098 H 0.0 **** 0.06
36401 C 98.23093245269791 46.785245184738415 46.06823908406827 C 0.0 **** -0.24
36402 H 97.37414544438707 46.3204476162249 46.55526491731996 H 0.0 **** 0.06
36403 H 98.74694005428182 47.43167053927509 46.779970446070365 H 0.0 **** 0.06
36404 H 97.88957251851309 47.378648400486014 45.21971447286646 H 0.0 **** 0.06
36405 H 98.9144046361107 46.011595245074176 45.71915388337624 H 0.0 **** 0.06
36406 C 114.92004474183442 82.53308712012347 65.71751063806755 C 0.0 **** -0.24
36407 H 114.39622851838296 82.01438742642338 64.91452797103716 H 0.0 **** 0.06
36408 H 114.53125146340228 83.54703366676495 65.80796014540499 H 0.0 **** 0.06
36409 H 115.98567771305636 82.56904548913309 65.49117387308667 H 0.0 **** 0.06
36410 H 114.76602561613865 81.99928452571464 66.6552567980055 H 0.0 **** 0.06
36411 C 98.22676037912319 108.15720695839877 46.54306495292408 C 0.0 **** -0.24
36412 H 97.18075745028278 107.84993743134976 46.53415957887678 H 0.0 **** 0.06
36413 H 98.29683942260814 109.19290584128254 46.875932393916145 H 0.0 **** 0.06
36414 H 98.6389178320521 108.06846251410252 45.53878186523698 H 0.0 **** 0.06
36415 H 98.78735332294067 107.51739762689954 47.22434207422097 H 0.0 **** 0.06
36416 C 87.76898183374252 34.8554467454089 85.36196321740078 C 0.0 **** -0.24
36417 H 88.43291283441306 34.01159581783429 85.17885367131021 H 0.0 **** 0.06
36418 H 86.73903686599101 34.55528384587964 85.16962094563502 H 0.0 **** 0.06
36419 H 88.03709869466218 35.67857637231381 84.69954194741013 H 0.0 **** 0.06
36420 H 87.86614831491929 35.176715162610265 86.39868796708885 H 0.0 **** 0.06
36421 C 1.5756935107937693 108.16259430012045 76.30824666886059 C 0.0 **** -0.24
36422 H 1.0713861321790716 108.4223839700579 77.23858656201995 H 0.0 **** 0.06
36423 H 1.0288930365007118 107.36097221141685 75.80935652914559 H 0.0 **** 0.06
36424 H 2.5904323393263127 107.82881844200486 76.52633560548574 H 0.0 **** 0.06
36425 H 1.6122390120106935 109.03699536345815 75.65799271137053 H 0.0 **** 0.06
36426 C 47.175252599462 110.84275083800054 87.03751650219971 C 0.0 **** -0.24
36427 H 47.590145589450515 111.8056190804598 87.337829001742 H 0.0 **** 0.06
36428 H 47.988715719975545 110.14908783065015 86.82458844764406 H 0.0 **** 0.06
36429 H 46.56441623438775 110.97325160113346 86.14406282734649 H 0.0 **** 0.06
36430 H 46.56024200858732 110.44561574126858 87.84389454188789 H 0.0 **** 0.06
36431 C 83.24632287089284 47.67960494121013 11.292441908641536 C 0.0 **** -0.24
36432 H 84.1231000387327 48.10246529224517 11.783126022281408 H 0.0 **** 0.06
36433 H 83.20127929961393 46.60825600072269 11.490423075904857 H 0.0 **** 0.06
36434 H 83.31528097664835 47.84828398600712 10.217684197836945 H 0.0 **** 0.06
36435 H 82.34680686348676 48.15862859690043 11.67854970446328 H 0.0 **** 0.06
36436 C 60.67955274958132 25.931667022759513 10.63438204656299 C 0.0 **** -0.24
36437 H 61.38696492094354 26.735555153002025 10.839308598467767 H 0.0 **** 0.06
36438 H 60.00209132988064 26.240030529335826 9.838032283937082 H 0.0 **** 0.06
36439 H 60.10658044003631 25.713937549464447 11.536025882498791 H 0.0 **** 0.06
36440 H 61.22401137379228 25.039060541904774 10.324676541316876 H 0.0 **** 0.06
36441 C 66.06880593481742 72.18285841491567 38.072169199731036 C 0.0 **** -0.24
36442 H 66.51515232589153 73.15762211354269 37.872979209470714 H 0.0 **** 0.06
36443 H 65.04765580245328 72.31734685791054 38.42832535472229 H 0.0 **** 0.06
36444 H 66.6541945842473 71.66418518536193 38.830657242936695 H 0.0 **** 0.06
36445 H 66.06003047386818 71.59415571113044 37.15492437071714 H 0.0 **** 0.06
36446 C 68.8895235544536 103.82056703758448 76.02103220645984 C 0.0 **** -0.24
36447 H 69.51362372644178 103.50150619546798 76.85630232467997 H 0.0 **** 0.06
36448 H 68.43899140453522 102.94692394022957 75.54992341879253 H 0.0 **** 0.06
36449 H 69.50166013483292 104.35322705799481 75.29298200374205 H 0.0 **** 0.06
36450 H 68.10349164745674 104.48105294607382 76.38787032251565 H 0.0 **** 0.06
36451 C 16.59546658037499 62.79895586769755 63.26630912695151 C 0.0 **** -0.24
36452 H 16.70313269242422 62.24891634926977 64.20105962288883 H 0.0 **** 0.06
36453 H 15.780946641945548 62.36716194300411 62.6836451446421 H 0.0 **** 0.06
36454 H 17.522948627042695 62.73463816337817 62.69765613132142 H 0.0 **** 0.06
36455 H 16.372968884516013 63.84377992599277 63.48373830460565 H 0.0 **** 0.06
36456 C 10.46701648980541 11.456972871474463 97.07505788832725 C 0.0 **** -0.24
36457 H 11.075475149664086 11.854802230931284 96.26228492950304 H 0.0 **** 0.06
36458 H 10.536472758803537 10.369111978819987 97.08075714730421 H 0.0 **** 0.06
36459 H 9.428348438417547 11.755141303294522 96.92937576764484 H 0.0 **** 0.06
36460 H 10.829041044070916 11.84957111961451 98.02437222178293 H 0.0 **** 0.06
36461 C 37.82999621897363 37.28935737026802 58.72307792378087 C 0.0 **** -0.24
36462 H 38.59313134419244 37.02334996415294 59.45505323310096 H 0.0 **** 0.06
36463 H 36.94851046064389 36.66672279016035 58.87588826138502 H 0.0 **** 0.06
36464 H 38.21986183311719 37.129745104846506 57.717791053679626 H 0.0 **** 0.06
36465 H 37.56039667944077 38.33865346507679 58.845869611360946 H 0.0 **** 0.06
36466 C 92.85794524797882 107.40134842577996 47.56086266302128 C 0.0 **** -0.24
36467 H 93.06141712311563 107.1390333791185 46.522695060095145 H 0.0 **** 0.06
36468 H 91.89763456046802 107.91493290543303 47.6245921122981 H 0.0 **** 0.06
36469 H 93.64592668374024 108.05741015277556 47.930564201064556 H 0.0 **** 0.06
36470 H 92.82639377733358 106.49536455195823 48.16573262032176 H 0.0 **** 0.06
36471 C 68.44664629916565 20.204811705928932 38.398741147149906 C 0.0 **** -0.24
36472 H 68.46172365946262 19.45701901874486 39.19121745406227 H 0.0 **** 0.06
36473 H 67.42658658099856 20.322473486016236 38.029945846025896 H 0.0 **** 0.06
36474 H 69.09318080877094 19.88213718152923 37.581859074225775 H 0.0 **** 0.06
36475 H 68.8038432651278 21.156716459941777 38.790038422848795 H 0.0 **** 0.06
36476 C 114.38034910416434 6.092129468995566 48.19970483342229 C 0.0 **** -0.24
36477 H 115.00633774705824 6.500278429132905 47.406613683438934 H 0.0 **** 0.06
36478 H 114.23685486551886 6.845948443231322 48.97415260563628 H 0.0 **** 0.06
36479 H 114.86520106183622 5.216297016995014 48.63080117410982 H 0.0 **** 0.06
36480 H 113.41211347350088 5.805832199109872 47.78767975361097 H 0.0 **** 0.06
36481 C 112.40381876149212 2.6294411413509806 87.66878735582648 C 0.0 **** -0.24
36482 H 112.19152346525954 1.6677759934730716 87.20293357470419 H 0.0 **** 0.06
36483 H 112.96210450727898 2.4717362760715673 88.59156802606813 H 0.0 **** 0.06
36484 H 111.46739566108351 3.1393642128333 87.89270730216649 H 0.0 **** 0.06
36485 H 112.9956758126254 3.2400824829970816 86.98558573481355 H 0.0 **** 0.06
36486 C 14.41521935613261 50.632715194654196 73.38900954480042 C 0.0 **** -0.24
36487 H 13.799120566442895 49.80373272962514 73.04181323903381 H 0.0 **** 0.06
36488 H 14.809516112644332 50.40093180081321 74.37886890066278 H 0.0 **** 0.06
36489 H 13.809718460845886 51.537004558493955 73.44187090219546 H 0.0 **** 0.06
36490 H 15.241664326611158 50.78727544475202 72.69562813425313 H 0.0 **** 0.06
36491 C 41.01213754745711 89.07750866343702 25.530372526610186 C 0.0 **** -0.24
36492 H 41.683591357691924 88.21989650278809 25.490010159530584 H 0.0 **** 0.06
36493 H 40.58219691974165 89.24965858921408 24.542865303805065 H 0.0 **** 0.06
36494 H 41.567993874715455 89.96014079587448 25.84400149125114 H 0.0 **** 0.06
36495 H 40.212600487396415 88.87827051516612 26.24476995504618 H 0.0 **** 0.06
36496 C 55.01693003949182 44.25858865602797 21.351798403851603 C 0.0 **** -0.24
36497 H 55.38506025484938 45.017938258882765 22.042289053518346 H 0.0 **** 0.06
36498 H 53.97055623459287 44.45800358250567 21.118580548432334 H 0.0 **** 0.06
36499 H 55.10579150164629 43.27521047482023 21.812897011470426 H 0.0 **** 0.06
36500 H 55.60488971235308 44.285344295598435 20.434972652102715 H 0.0 **** 0.06
36501 C 82.94995249728012 76.66279633100643 74.02890470237591 C 0.0 **** -0.24
36502 H 82.35227927232918 77.4724812608695 74.4467371499781 H 0.0 **** 0.06
36503 H 82.29372377109263 75.94103158675566 73.54308019770806 H 0.0 **** 0.06
36504 H 83.50428183672926 76.1710959263797 74.82782122820976 H 0.0 **** 0.06
36505 H 83.64988864749313 77.06763011897576 73.29710963134568 H 0.0 **** 0.06
36506 C 8.260464040139667 41.92139727673337 116.46959923501406 C 0.0 **** -0.24
36507 H 8.575414515287349 41.9217051508881 117.51321606215849 H 0.0 **** 0.06
36508 H 7.599846345197548 42.76926943966731 116.28917748644005 H 0.0 **** 0.06
36509 H 7.729720677614637 40.99445380803642 116.25165366319615 H 0.0 **** 0.06
36510 H 9.136397960738464 41.99854849001418 115.82582412166828 H 0.0 **** 0.06
36511 C 93.07840336410257 81.42850310569074 62.04804092348338 C 0.0 **** -0.24
36512 H 92.49251445953075 81.46401723895895 62.96694513508731 H 0.0 **** 0.06
36513 H 92.4202659837994 81.57336847287584 61.19193630488659 H 0.0 **** 0.06
36514 H 93.56990090716496 80.45870059650622 61.96833368912372 H 0.0 **** 0.06
36515 H 93.83099218435126 82.21619177200489 62.066358790778814 H 0.0 **** 0.06
36516 C 112.81123988705497 104.13719612639963 3.343173037899234 C 0.0 **** -0.24
36517 H 112.06071802389877 103.34787410466811 3.289000068188514 H 0.0 **** 0.06
36518 H 112.42065596222511 104.96998233962034 3.9274728331613034 H 0.0 **** 0.06
36519 H 113.0506435664667 104.47869808679962 2.336364602550205 H 0.0 **** 0.06
36520 H 113.7120116764653 103.74944335080349 3.8186842567064048 H 0.0 **** 0.06
36521 C 72.2520466461348 84.775351210759 47.49715849231177 C 0.0 **** -0.24
36522 H 72.6305706446523 83.75488654095471 47.55035029702938 H 0.0 **** 0.06
36523 H 71.71634015049 84.91482097888996 46.55753634994485 H 0.0 **** 0.06
36524 H 73.08585441809296 85.47481587283241 47.54667297109025 H 0.0 **** 0.06
36525 H 71.57514832458139 84.95517368089202 48.33233961280666 H 0.0 **** 0.06
36526 C 66.79599226920126 111.28842823587331 86.13054546744232 C 0.0 **** -0.24
36527 H 67.19417970532308 110.2751294318781 86.17736673394626 H 0.0 **** 0.06
36528 H 66.65670191493453 111.67001546635572 87.14163809551027 H 0.0 **** 0.06
36529 H 65.8391413940596 111.27854109802057 85.60953053927824 H 0.0 **** 0.06
36530 H 67.49518327833596 111.92847858441489 85.59261104955789 H 0.0 **** 0.06
36531 C 62.11107093525582 82.84754343493256 9.888915256518118 C 0.0 **** -0.24
36532 H 61.67751478392939 83.72363992255706 10.371721639262773 H 0.0 **** 0.06
36533 H 63.19764529922677 82.88683807156238 9.974811317689046 H 0.0 **** 0.06
36534 H 61.829652463747955 82.83687741855064 8.836331390325029 H 0.0 **** 0.06
36535 H 61.740670301462764 81.94531480733005 10.373950043564605 H 0.0 **** 0.06
36536 C 102.97448417829384 62.37689393553051 41.604748846638046 C 0.0 **** -0.24
36537 H 102.99444343565818 63.42254195834547 41.29738942486884 H 0.0 **** 0.06
36538 H 103.23024438702947 62.30389437427852 42.661521154453325 H 0.0 **** 0.06
36539 H 103.69720894051403 61.81210686994583 41.01594799060669 H 0.0 **** 0.06
36540 H 101.97649472783718 61.97049036090886 41.44222154058926 H 0.0 **** 0.06
36541 C 101.71871301553816 19.534514464301424 58.627398773934374 C 0.0 **** -0.24
36542 H 100.9191884038294 20.11567295279997 58.169804989417656 H 0.0 **** 0.06
36543 H 101.78136067231512 19.775411064747516 59.689104065655954 H 0.0 **** 0.06
36544 H 102.66540903160248 19.7746636646566 58.14321596374495 H 0.0 **** 0.06
36545 H 101.50961425253018 18.47144767220317 58.50832878270916 H 0.0 **** 0.06
36546 C 77.13962071270925 72.57704421419572 83.64116764071633 C 0.0 **** -0.24
36547 H 76.50840766829012 73.42286202416597 83.91388048677896 H 0.0 **** 0.06
36548 H 77.99420456977293 72.93299107339948 83.06421761402277 H 0.0 **** 0.06
36549 H 76.5644208442817 71.87212933234588 83.04183716469635 H 0.0 **** 0.06
36550 H 77.49336667613028 72.08145205304851 84.54559796173095 H 0.0 **** 0.06
36551 C 110.98380932751559 39.2695478433194 55.54540381743982 C 0.0 **** -0.24
36552 H 111.99405276572286 39.66811949314996 55.44938905957275 H 0.0 **** 0.06
36553 H 110.73611954936267 39.157176995294776 56.601451920590364 H 0.0 **** 0.06
36554 H 110.92872758962956 38.298569014776035 55.05369144862357 H 0.0 **** 0.06
36555 H 110.27730972938056 39.95440812109132 55.07730165320186 H 0.0 **** 0.06
36556 C 103.49561907482331 85.49528106241178 62.63786137835183 C 0.0 **** -0.24
36557 H 102.94038984611313 86.43196312847516 62.68165801203685 H 0.0 **** 0.06
36558 H 102.99436076182718 84.80802038675793 61.95528690368903 H 0.0 **** 0.06
36559 H 103.53945323190055 85.05228576497868 63.632681805772506 H 0.0 **** 0.06
36560 H 104.50686002729367 85.6888729751604 62.28174931319461 H 0.0 **** 0.06
36561 C 92.50821644781158 58.04189480154533 107.19710008585542 C 0.0 **** -0.24
36562 H 93.34618210487761 58.685370874963844 106.93054799134089 H 0.0 **** 0.06
36563 H 92.05458997009387 57.64173985297595 106.28993194002646 H 0.0 **** 0.06
36564 H 91.76697255436636 58.62049590283116 107.74845952221196 H 0.0 **** 0.06
36565 H 92.86471894000937 57.22130650007974 107.81921803470007 H 0.0 **** 0.06
36566 C 4.215354446201161 15.489243116214567 97.9981908563374 C 0.0 **** -0.24
36567 H 4.65440888221525 16.465719567347946 98.2017661140514 H 0.0 **** 0.06
36568 H 4.890271414692478 14.912979951671105 97.3646864257579 H 0.0 **** 0.06
36569 H 3.2602807747902602 15.618998912249907 97.49024044756021 H 0.0 **** 0.06
36570 H 4.057296327451326 14.959279104654797 98.93837160514855 H 0.0 **** 0.06
36571 C 100.09158477315867 79.32773314366577 66.83074775588611 C 0.0 **** -0.24
36572 H 100.26492258839306 79.69633067237086 65.81882882006116 H 0.0 **** 0.06
36573 H 101.00007231998728 78.85355503379151 67.20478596054545 H 0.0 **** 0.06
36574 H 99.27960769751365 78.60043735350678 66.81778447073779 H 0.0 **** 0.06
36575 H 99.82331689811457 80.16171177760123 67.47929224192521 H 0.0 **** 0.06
36576 C 51.016443298818956 90.36431161137813 107.78868550613348 C 0.0 **** -0.24
36577 H 51.48569231113825 91.15813135992846 107.2078503195516 H 0.0 **** 0.06
36578 H 51.76887205253493 89.8730117110415 108.40653695370716 H 0.0 **** 0.06
36579 H 50.56906777234971 89.63602350753155 107.11210102972072 H 0.0 **** 0.06
36580 H 50.243073698634646 90.79039462798926 108.42807717875425 H 0.0 **** 0.06
36581 C 86.21052058371745 40.19489907970339 81.56611292363317 C 0.0 **** -0.24
36582 H 86.13048329163917 41.02918137701786 82.26319904500082 H 0.0 **** 0.06
36583 H 85.22657170969615 39.7523761702175 81.41528861029576 H 0.0 **** 0.06
36584 H 86.8883656006816 39.44537045909547 81.9735523633625 H 0.0 **** 0.06
36585 H 86.59809532610535 40.554384085627476 80.61244664946616 H 0.0 **** 0.06
36586 C 63.2425435912474 23.767215640620634 2.6190081171597885 C 0.0 **** -0.24
36587 H 62.50564488610797 24.046349265124974 1.8660754055266011 H 0.0 **** 0.06
36588 H 63.35585071220976 22.68313793310358 2.6313366292590636 H 0.0 **** 0.06
36589 H 62.908673736357514 24.109866058331477 3.598076316424182 H 0.0 **** 0.06
36590 H 64.20010052595927 24.229806779798423 2.3785686119052123 H 0.0 **** 0.06
36591 C 51.60878007006275 40.84644807557581 66.77863654069046 C 0.0 **** -0.24
36592 H 50.597220766172455 41.14488816448713 66.50322547112825 H 0.0 **** 0.06
36593 H 51.67894703218113 39.758144786483314 66.77940125825006 H 0.0 **** 0.06
36594 H 51.842880090885956 41.22725719030038 67.77203046021629 H 0.0 **** 0.06
36595 H 52.31615902788681 41.255270895913725 66.05629178466114 H 0.0 **** 0.06
36596 C 75.19336402047557 85.80163959103825 4.448362659763747 C 0.0 **** -0.24
36597 H 75.34787407116693 85.73520947135705 3.370834135148769 H 0.0 **** 0.06
36598 H 74.38058562312199 86.49790503115682 4.656318689175109 H 0.0 **** 0.06
36599 H 76.10728821531214 86.15582579101851 4.925387476872544 H 0.0 **** 0.06
36600 H 74.93745120515041 84.81652389768104 4.839592412362897 H 0.0 **** 0.06
36601 C 96.73243436682526 105.11736859905471 8.158539026681112 C 0.0 **** -0.24
36602 H 96.57579804770768 104.90917170918254 9.21742435704644 H 0.0 **** 0.06
36603 H 97.69707962833422 105.60656834153306 8.023991308716361 H 0.0 **** 0.06
36604 H 95.9398256828486 105.77151612754756 7.796255423973335 H 0.0 **** 0.06
36605 H 96.71680681656122 104.18234103089986 7.5984683191832545 H 0.0 **** 0.06
36606 C 26.062012013679748 40.229708119961 41.433911847267005 C 0.0 **** -0.24
36607 H 25.18000049339534 40.32886158254662 42.067448187722185 H 0.0 **** 0.06
36608 H 26.658822527671845 41.13904289604076 41.49676387993989 H 0.0 **** 0.06
36609 H 25.750558551556395 40.069397259060196 40.40154943236239 H 0.0 **** 0.06
36610 H 26.655975395753615 39.380663195569184 41.76996258030484 H 0.0 **** 0.06
36611 C 76.78706233659494 26.43646014108714 10.485743810946445 C 0.0 **** -0.24
36612 H 76.60993948679433 25.58024925288821 9.835395183794333 H 0.0 **** 0.06
36613 H 77.15041792035564 26.08771957811203 11.453693627947047 H 0.0 **** 0.06
36614 H 75.8570971770682 26.986269952526243 10.623775788864151 H 0.0 **** 0.06
36615 H 77.53216069549379 27.089288069628708 10.031445367532143 H 0.0 **** 0.06
36616 C 67.99631711643661 73.7180795107464 41.136978372062856 C 0.0 **** -0.24
36617 H 68.20609557871327 73.84782852065678 42.199163955287815 H 0.0 **** 0.06
36618 H 67.85744848359502 74.69407637303237 40.673028444880075 H 0.0 **** 0.06
36619 H 67.0891116525114 73.12476127889022 41.01643886443446 H 0.0 **** 0.06
36620 H 68.83238377089612 73.2047306462211 40.66276068146752 H 0.0 **** 0.06
36621 C 63.8559043136986 92.86482097244846 23.516827841171136 C 0.0 **** -0.24
36622 H 64.41367505185383 92.00894073089222 23.1361536929287 H 0.0 **** 0.06
36623 H 62.913981380167684 92.52216457810255 23.94735293590864 H 0.0 **** 0.06
36624 H 63.65155338504735 93.55661144847579 22.700121923251203 H 0.0 **** 0.06
36625 H 64.44399350531762 93.36957827344088 24.28274825892899 H 0.0 **** 0.06
36626 C 82.57388358839762 30.097938594624523 19.102472701301934 C 0.0 **** -0.24
36627 H 83.01224723236669 30.734980698598207 18.33413576237541 H 0.0 **** 0.06
36628 H 81.49432350698015 30.24900849296982 19.12598702971357 H 0.0 **** 0.06
36629 H 82.99899076976908 30.35443849494156 20.072360631862438 H 0.0 **** 0.06
36630 H 82.78970432639608 29.054034437108612 18.875077715360504 H 0.0 **** 0.06
36631 C 80.013791328661 14.45504289825206 111.86544874497724 C 0.0 **** -0.24
36632 H 79.3555180451375 13.669319726856543 111.49416129199017 H 0.0 **** 0.06
36633 H 80.7411187495905 14.712591044375273 111.09478487038399 H 0.0 **** 0.06
36634 H 80.53499690816145 14.102541282386156 112.75558655959463 H 0.0 **** 0.06
36635 H 79.42248308701883 15.336076713367362 112.11638297486337 H 0.0 **** 0.06
36636 C 43.990823160706626 1.240720785414311 89.34076113149558 C 0.0 **** -0.24
36637 H 43.96950520855374 1.5539318999273348 90.38432391233198 H 0.0 **** 0.06
36638 H 43.06551154180217 1.5468294089958476 88.85114294102925 H 0.0 **** 0.06
36639 H 44.087723367676574 0.1564656701992817 89.2889621364877 H 0.0 **** 0.06
36640 H 44.83838691055348 1.7067664026398006 88.83889451672565 H 0.0 **** 0.06
36641 C 37.83195704270784 81.44993555871173 75.45303986675219 C 0.0 **** -0.24
36642 H 36.874567627093654 81.70105940958814 75.91032787491866 H 0.0 **** 0.06
36643 H 38.49946832947711 81.0382317662642 76.2106846993251 H 0.0 **** 0.06
36644 H 38.276529127542716 82.34824654888914 75.02568411153459 H 0.0 **** 0.06
36645 H 37.67547124159992 80.71116313794829 74.6667686079432 H 0.0 **** 0.06
36646 C 42.05625849426214 110.3092295520375 62.772907397417534 C 0.0 **** -0.24
36647 H 42.75313939894022 109.50437352711509 62.53769943150865 H 0.0 **** 0.06
36648 H 41.479694455505886 110.56140086417616 61.882226997406555 H 0.0 **** 0.06
36649 H 42.61244835571271 111.18509911474706 63.105371305205715 H 0.0 **** 0.06
36650 H 41.38023739484681 109.9853582278584 63.564031145466096 H 0.0 **** 0.06
36651 C 78.71140060437617 9.774992559874391 78.7258246306169 C 0.0 **** -0.24
36652 H 79.0226273442355 10.543264633853141 78.01761990438152 H 0.0 **** 0.06
36653 H 79.55613960771925 9.50198185890558 79.35834905280959 H 0.0 **** 0.06
36654 H 78.36533855682649 8.897537333687723 78.18008814067548 H 0.0 **** 0.06
36655 H 77.90224078190275 10.16023902955942 79.346178963451 H 0.0 **** 0.06
36656 C 107.46145912513043 23.76103062029003 62.3885098806403 C 0.0 **** -0.24
36657 H 108.37215220713108 23.320452875084783 62.79351270903811 H 0.0 **** 0.06
36658 H 107.71917792399267 24.604775461455375 61.74857971767969 H 0.0 **** 0.06
36659 H 106.82961566092183 24.10510713405023 63.20812883444137 H 0.0 **** 0.06
36660 H 106.9243233186005 23.012438824466614 61.80578315612178 H 0.0 **** 0.06
36661 C 98.93833249922565 63.50495200635228 11.853608548553765 C 0.0 **** -0.24
36662 H 98.82891640891054 64.45007107750169 12.383420684395123 H 0.0 **** 0.06
36663 H 98.09827960293407 63.37140322342583 11.171453974281572 H 0.0 **** 0.06
36664 H 98.95735648899483 62.68568337126064 12.572017855165825 H 0.0 **** 0.06
36665 H 99.86926520931792 63.51120591300119 11.28671954754681 H 0.0 **** 0.06
36666 C 65.97373351077849 84.44999100614024 75.77416738741695 C 0.0 **** -0.24
36667 H 65.64698551646117 85.2104446930554 76.48382148349441 H 0.0 **** 0.06
36668 H 66.98503951451875 84.68039938561358 75.43645269441564 H 0.0 **** 0.06
36669 H 65.29875225866141 84.4373499283895 74.91936250801456 H 0.0 **** 0.06
36670 H 65.96623911130618 83.47352205950003 76.25829566109041 H 0.0 **** 0.06
36671 C 45.09971471350481 85.20645338772377 76.70766502143971 C 0.0 **** -0.24
36672 H 45.98535767667337 85.82655323146275 76.84673226447887 H 0.0 **** 0.06
36673 H 44.576087817007064 85.51898214252051 75.8051842664492 H 0.0 **** 0.06
36674 H 44.44018531752115 85.31836192773562 77.5691703970275 H 0.0 **** 0.06
36675 H 45.39906166228065 84.16265722541337 76.61274957191017 H 0.0 **** 0.06
36676 C 71.6545973241825 102.73720227983222 17.848259587757042 C 0.0 **** -0.24
36677 H 70.57173532801005 102.61265223610332 17.865264467429512 H 0.0 **** 0.06
36678 H 71.97465618349429 103.25967633331226 18.74998525550467 H 0.0 **** 0.06
36679 H 71.93987691063768 103.3170131199436 16.97032910898983 H 0.0 **** 0.06
36680 H 72.13168884562504 101.75781365780298 17.80717922863738 H 0.0 **** 0.06
36681 C 50.68312843238647 2.5356692059139956 74.3372799998038 C 0.0 **** -0.24
36682 H 50.82299882463778 3.551884551139276 73.96975780192756 H 0.0 **** 0.06
36683 H 51.65118024418615 2.0387270124833385 74.40630285215519 H 0.0 **** 0.06
36684 H 50.04092104880587 1.9863531146779376 73.65012617972505 H 0.0 **** 0.06
36685 H 50.21908885770617 2.5669058225237205 75.32381007852197 H 0.0 **** 0.06
36686 C 30.575866648504316 113.49365389892122 75.2680651075107 C 0.0 **** -0.24
36687 H 30.95750797791944 113.17341909260546 74.29893225278767 H 0.0 **** 0.06
36688 H 31.146609649403942 113.01109478799174 76.06101659082546 H 0.0 **** 0.06
36689 H 29.52523656509358 113.21459607157655 75.35445482618343 H 0.0 **** 0.06
36690 H 30.672325767013163 114.57607505209481 75.3571611001893 H 0.0 **** 0.06
36691 C 23.57170196790935 84.10860314479811 91.71033013068069 C 0.0 **** -0.24
36692 H 23.449571053372438 85.16959723832551 91.92645623723831 H 0.0 **** 0.06
36693 H 22.846801338839043 83.53399655962366 92.28650483348474 H 0.0 **** 0.06
36694 H 24.580350280126822 83.79657212203611 91.9800117044795 H 0.0 **** 0.06
36695 H 23.410645564853098 83.93545104682678 90.64565777291821 H 0.0 **** 0.06
36696 C 34.75725456074642 54.00305536872145 114.01234836520007 C 0.0 **** -0.24
36697 H 34.50996994146399 52.94279325272532 114.05904410308125 H 0.0 **** 0.06
36698 H 33.912143061105326 54.5556585271745 113.60205669175684 H 0.0 **** 0.06
36699 H 35.62873797749023 54.144505513100626 113.37296937933894 H 0.0 **** 0.06
36700 H 34.979407483264595 54.36885408798332 115.01418581106219 H 0.0 **** 0.06
36701 C 61.136934510231335 32.34223068866576 96.90148453117013 C 0.0 **** -0.24
36702 H 60.414325157723646 32.784587612644664 97.58816212242357 H 0.0 **** 0.06
36703 H 61.7762917515628 33.12600377924373 96.49353342263089 H 0.0 **** 0.06
36704 H 60.607543085361634 31.844737103061817 96.08875897661926 H 0.0 **** 0.06
36705 H 61.74726897131365 31.615814462706318 97.43634355069776 H 0.0 **** 0.06
36706 C 69.35804468608612 12.923903130606107 106.7530974319188 C 0.0 **** -0.24
36707 H 69.12050714127943 13.495013289150819 107.65083241010922 H 0.0 **** 0.06
36708 H 70.22378290058882 13.36652927372927 106.25961444780137 H 0.0 **** 0.06
36709 H 68.50430693081788 12.942839543927306 106.07509502052045 H 0.0 **** 0.06
36710 H 69.58282087304528 11.893545642463579 107.0266006524619 H 0.0 **** 0.06
36711 C 78.93375426114184 68.28392732985878 71.73420908217648 C 0.0 **** -0.24
36712 H 79.27001991845398 69.2525454336606 72.10411088423342 H 0.0 **** 0.06
36713 H 78.45753620178519 68.41262912993409 70.76205364649823 H 0.0 **** 0.06
36714 H 78.21731782112016 67.85657042761602 72.4355077699382 H 0.0 **** 0.06
36715 H 79.7891301922802 67.61618822334776 71.63533329183238 H 0.0 **** 0.06
36716 C 116.50094858584954 86.36591110517045 26.011666764891118 C 0.0 **** -0.24
36717 H 115.58679938709905 85.77201717224827 26.00254399086751 H 0.0 **** 0.06
36718 H 116.3674291904063 87.22978246353375 26.663303050712756 H 0.0 **** 0.06
36719 H 116.72308206857224 86.70472042591325 24.999363464889257 H 0.0 **** 0.06
36720 H 117.3260193207322 85.7571271722511 26.38012071531702 H 0.0 **** 0.06
36721 C 68.59967587969396 105.53068789402712 83.16769385158727 C 0.0 **** -0.24
36722 H 69.49135442482981 105.96335660933087 82.71258375877372 H 0.0 **** 0.06
36723 H 68.11648507066761 106.27650450356944 83.79804147902172 H 0.0 **** 0.06
36724 H 68.88253071971963 104.6700540360099 83.77306432750191 H 0.0 **** 0.06
36725 H 67.91025634702856 105.21369801860067 82.38452455180246 H 0.0 **** 0.06
36726 C 12.221369851966784 73.36266607115866 111.18113521422674 C 0.0 **** -0.24
36727 H 11.769802130512858 72.37915490133489 111.31200671817226 H 0.0 **** 0.06
36728 H 13.296971245062622 73.25171273426116 111.0410138039267 H 0.0 **** 0.06
36729 H 12.031558477152174 73.96938368548177 112.06658331923818 H 0.0 **** 0.06
36730 H 11.787979247972004 73.84830094625335 110.30735534319261 H 0.0 **** 0.06
36731 C 53.78071884328378 115.21238427265206 4.7227915054547935 C 0.0 **** -0.24
36732 H 53.34077445991315 114.21988176591486 4.620861474783993 H 0.0 **** 0.06
36733 H 54.845434906855274 115.11650230243515 4.9380782410885615 H 0.0 **** 0.06
36734 H 53.29044642594269 115.74432992800354 5.537861880876676 H 0.0 **** 0.06
36735 H 53.645177873942 115.76587006158849 3.793922807388938 H 0.0 **** 0.06
36736 C 105.5194389014602 66.8380337655102 19.7188716461428 C 0.0 **** -0.24
36737 H 105.93699995331895 66.39212207043226 20.62221352957758 H 0.0 **** 0.06
36738 H 105.57235640751236 66.11796599593674 18.90187216650591 H 0.0 **** 0.06
36739 H 106.0900656507983 67.7282249685021 19.457030828011394 H 0.0 **** 0.06
36740 H 104.47940662775142 67.11134888510662 19.89602316297091 H 0.0 **** 0.06
36741 C 25.535971289598805 83.0138086882744 65.31248697729328 C 0.0 **** -0.24
36742 H 26.593045152227177 82.78500487670306 65.17501093514775 H 0.0 **** 0.06
36743 H 25.353459157952955 84.05689031786233 65.0543629902152 H 0.0 **** 0.06
36744 H 25.259583827942052 82.84236472723802 66.35330874975801 H 0.0 **** 0.06
36745 H 24.93869814739398 82.36895354532754 64.66694482306193 H 0.0 **** 0.06
36746 C 40.29992795151003 4.506295723256386 79.9590482604502 C 0.0 **** -0.24
36747 H 41.21145320748718 4.5036853416768 80.55639977869316 H 0.0 **** 0.06
36748 H 39.96601900994665 5.533247748106561 79.81018814735711 H 0.0 **** 0.06
36749 H 39.52455162337196 3.9422231251713526 80.47709613395861 H 0.0 **** 0.06
36750 H 40.4991806239517 4.044557848416531 78.9917248901836 H 0.0 **** 0.06
36751 C 20.763990056900667 90.74815132243981 22.968382704123997 C 0.0 **** -0.24
36752 H 21.360629723701877 90.3445524614769 22.150663926205766 H 0.0 **** 0.06
36753 H 20.006870334340746 91.42184733576829 22.56810988853897 H 0.0 **** 0.06
36754 H 21.410937213444058 91.2942028243055 23.654800278509356 H 0.0 **** 0.06
36755 H 20.277604646503562 89.93015746410953 23.500724043717923 H 0.0 **** 0.06
36756 C 110.66250974920321 101.54354281944237 112.36469391992023 C 0.0 **** -0.24
36757 H 111.71351751614678 101.74812368614172 112.15782107085886 H 0.0 **** 0.06
36758 H 110.30857778431593 100.7557142853947 111.69925168476863 H 0.0 **** 0.06
36759 H 110.07797400180033 102.44850688752115 112.2003256291099 H 0.0 **** 0.06
36760 H 110.55180368891865 101.22225148198388 113.40017061515186 H 0.0 **** 0.06
36761 C 18.194687881402814 78.11109260755418 84.22996709943286 C 0.0 **** -0.24
36762 H 18.967250464316038 77.91924720553345 84.9742602775903 H 0.0 **** 0.06
36763 H 17.928454092109888 77.17735455770767 83.73387352688553 H 0.0 **** 0.06
36764 H 18.569809360595173 78.82069586288142 83.49176650037089 H 0.0 **** 0.06
36765 H 17.314136229842035 78.52623646645756 84.71926585695346 H 0.0 **** 0.06
36766 C 10.096390100166133 46.98555408939424 16.672959779623106 C 0.0 **** -0.24
36767 H 9.169326380781428 47.482867623241845 16.386241930203866 H 0.0 **** 0.06
36768 H 10.80617832025402 47.72574897141527 17.042968175555465 H 0.0 **** 0.06
36769 H 10.519016116641183 46.47813566904827 15.806413359904106 H 0.0 **** 0.06
36770 H 9.88973872522135 46.257150319012254 17.456897344913035 H 0.0 **** 0.06
36771 C 100.13061239101873 8.160293943647957 93.80348314754721 C 0.0 **** -0.24
36772 H 100.72325420687591 8.92837748840229 94.30171741752736 H 0.0 **** 0.06
36773 H 99.47627882269535 7.678030010992501 94.52957614199255 H 0.0 **** 0.06
36774 H 100.79586949315743 7.418371692706145 93.36330903486382 H 0.0 **** 0.06
36775 H 99.52802856854015 8.619201155285381 93.01974411928816 H 0.0 **** 0.06
36776 C 57.64072198290419 65.24657117969448 54.62409933709827 C 0.0 **** -0.24
36777 H 58.71195897803647 65.17954676199469 54.430775595264336 H 0.0 **** 0.06
36778 H 57.223401791896926 66.08505015649271 54.065076151322785 H 0.0 **** 0.06
36779 H 57.473284049143736 65.40079415927468 55.690246512058614 H 0.0 **** 0.06
36780 H 57.15692368180422 64.32263876582968 54.309421749247726 H 0.0 **** 0.06
36781 C 19.958962472732196 32.5977480336677 110.39341726382645 C 0.0 **** -0.24
36782 H 20.82520303966652 33.05174220942146 110.874331511992 H 0.0 **** 0.06
36783 H 19.189254133558364 32.40262960819612 111.1404760753709 H 0.0 **** 0.06
36784 H 20.254087102132644 31.66125563289333 109.92167653236535 H 0.0 **** 0.06
36785 H 19.56625398847055 33.278344798920244 109.63730145576977 H 0.0 **** 0.06
36786 C 90.1690999643049 45.33649019161942 64.73345004568316 C 0.0 **** -0.24
36787 H 90.38746639536993 44.938258716762164 63.7428084693205 H 0.0 **** 0.06
36788 H 89.31090803958767 46.007006924597476 64.67493527722766 H 0.0 **** 0.06
36789 H 91.03514831408677 45.88496128521655 65.10267982196257 H 0.0 **** 0.06
36790 H 89.94289592850868 44.51432865856947 65.41321778312255 H 0.0 **** 0.06
36791 C 10.07186761169703 57.35695673825688 77.89834052155089 C 0.0 **** -0.24
36792 H 9.002824352528236 57.36787137639777 77.68586147083826 H 0.0 **** 0.06
36793 H 10.284203239272287 56.603987258238874 78.65718075259275 H 0.0 **** 0.06
36794 H 10.379556583746833 58.33767494782472 78.26322042391803 H 0.0 **** 0.06
36795 H 10.621083432187248 57.120258307706536 76.9867826079929 H 0.0 **** 0.06
36796 C 84.92431549391955 110.0566612142633 70.31139553768259 C 0.0 **** -0.24
36797 H 84.11616610867958 110.56552968398192 70.83636733745311 H 0.0 **** 0.06
36798 H 84.81017060297538 110.20646636145794 69.23726128501102 H 0.0 **** 0.06
36799 H 84.88907872462002 108.9909534578922 70.53588667539586 H 0.0 **** 0.06
36800 H 85.88146043207837 110.46509235266633 70.6351184388096 H 0.0 **** 0.06
36801 C 65.84003364329058 11.886683831511903 59.15606164739771 C 0.0 **** -0.24
36802 H 66.16715488080067 12.293630658931182 60.11356100370106 H 0.0 **** 0.06
36803 H 66.4747359835101 12.276256014635099 58.36044780234949 H 0.0 **** 0.06
36804 H 64.80592247924093 12.178099708169206 58.97228501296488 H 0.0 **** 0.06
36805 H 65.91254597114812 10.79960583643696 59.180005943090656 H 0.0 **** 0.06
36806 C 101.43996658296197 15.241858438661609 15.21117382133562 C 0.0 **** -0.24
36807 H 100.37214586720106 15.257743021855347 15.42832938312273 H 0.0 **** 0.06
36808 H 101.99992988818704 15.206987511731313 16.145998464565594 H 0.0 **** 0.06
36809 H 101.71112836419601 16.140876793167052 14.657329731940564 H 0.0 **** 0.06
36810 H 101.6761157483163 14.361884797479092 14.61220222489652 H 0.0 **** 0.06
36811 C 105.53184745189293 0.7695920416520039 42.23740973894974 C 0.0 **** -0.24
36812 H 104.73672562855961 1.15937240054852 41.60243219673066 H 0.0 **** 0.06
36813 H 105.30685602410603 -0.26252216089298486 42.50895749466855 H 0.0 **** 0.06
36814 H 105.605184824368 1.3755806120207552 43.14098071133452 H 0.0 **** 0.06
36815 H 106.4788296539341 0.8053074127634403 41.69801736009293 H 0.0 **** 0.06
36816 C 44.72810753992397 26.318899293282925 56.6764578411503 C 0.0 **** -0.24
36817 H 45.007030327325936 27.064019352934125 55.93038664550546 H 0.0 **** 0.06
36818 H 44.7213306864451 26.780516215182587 57.664321652455236 H 0.0 **** 0.06
36819 H 45.450015651791205 25.502534553127305 56.66125130508096 H 0.0 **** 0.06
36820 H 43.73530602693319 25.930538064587267 56.44924939686863 H 0.0 **** 0.06
36821 C 79.64402670587006 20.124518543337455 77.16693620371711 C 0.0 **** -0.24
36822 H 78.87177810011207 20.42900164447101 76.46046532551719 H 0.0 **** 0.06
36823 H 80.01474614398549 21.00033933891406 77.69939840162635 H 0.0 **** 0.06
36824 H 80.46386949662809 19.65184651916727 76.62683447902498 H 0.0 **** 0.06
36825 H 79.22277356172577 19.415723018663524 77.88097104196942 H 0.0 **** 0.06
36826 C 10.908150562240905 115.6627674632272 71.36869152198426 C 0.0 **** -0.24
36827 H 10.249536085298502 116.05310960420233 70.59387873521621 H 0.0 **** 0.06
36828 H 11.116412761698996 116.4468284498823 72.09700616396316 H 0.0 **** 0.06
36829 H 11.842749385720609 115.32922169077504 70.91678193887995 H 0.0 **** 0.06
36830 H 10.425600758323682 114.82161343956069 71.86691696362564 H 0.0 **** 0.06
36831 C 63.32053277006446 34.29324210030586 99.17730003307162 C 0.0 **** -0.24
36832 H 63.817847856063025 33.34829418117789 99.39457880169272 H 0.0 **** 0.06
36833 H 62.39716486901358 34.10108732450888 98.63150594435558 H 0.0 **** 0.06
36834 H 63.97773900873182 34.917909317911665 98.57120526132064 H 0.0 **** 0.06
36835 H 63.091312890378845 34.80641718619205 100.11106473903538 H 0.0 **** 0.06
36836 C 80.89614483327236 59.15868883601078 20.590617844787033 C 0.0 **** -0.24
36837 H 81.86585725934427 58.88114503546163 21.002590120833588 H 0.0 **** 0.06
36838 H 80.68256819725971 60.20032899378839 20.834478221459307 H 0.0 **** 0.06
36839 H 80.12313196196408 58.51973178601625 21.0180461756041 H 0.0 **** 0.06
36840 H 80.91184288200594 59.03419014961918 19.50780363117326 H 0.0 **** 0.06
36841 C 54.77011318860181 42.07994630460607 4.346504990661671 C 0.0 **** -0.24
36842 H 54.21636205413205 41.548815530903724 5.1207160406519705 H 0.0 **** 0.06
36843 H 54.61080375799176 41.58954937441382 3.3858914611602273 H 0.0 **** 0.06
36844 H 55.83278404004207 42.06972555257897 4.5886375105127115 H 0.0 **** 0.06
36845 H 54.419030380351614 43.11023275140832 4.2916083163088246 H 0.0 **** 0.06
36846 C 33.67157134139471 66.32251789001563 97.59228635004604 C 0.0 **** -0.24
36847 H 33.33752021102703 66.85249728944564 96.69978721996773 H 0.0 **** 0.06
36848 H 34.146645834075144 67.02552375892603 98.2764668342287 H 0.0 **** 0.06
36849 H 34.386114294873636 65.54979626073035 97.31057807135082 H 0.0 **** 0.06
36850 H 32.812962340516506 65.86139518728046 98.08224502833218 H 0.0 **** 0.06
36851 C 5.193930845279205 26.965807754460855 5.713013838969161 C 0.0 **** -0.24
36852 H 6.169222315548877 27.378532450882744 5.967734745988679 H 0.0 **** 0.06
36853 H 4.425633444601656 27.45172838591128 6.315365293350482 H 0.0 **** 0.06
36854 H 5.189951992344303 25.894703873827495 5.91248952911684 H 0.0 **** 0.06
36855 H 4.991016609296498 27.138826077759973 4.65564328033976 H 0.0 **** 0.06
36856 C 54.49711720895505 72.61432216678796 78.4916286814472 C 0.0 **** -0.24
36857 H 53.60227111819612 72.05767543424619 78.21273646080203 H 0.0 **** 0.06
36858 H 55.380714697005104 72.02098564951271 78.25574896468021 H 0.0 **** 0.06
36859 H 54.47519699644187 72.82555138769806 79.56028935236702 H 0.0 **** 0.06
36860 H 54.52866778639931 73.5512395859013 77.93600538937588 H 0.0 **** 0.06
36861 C 37.61035828359852 32.54857502460456 80.5851965883491 C 0.0 **** -0.24
36862 H 38.69657094323817 32.610539820901124 80.64720751362921 H 0.0 **** 0.06
36863 H 37.26856429540434 33.04851464013507 79.67937697743236 H 0.0 **** 0.06
36864 H 37.16935754615115 33.03169739083012 81.45627006989051 H 0.0 **** 0.06
36865 H 37.30822170561586 31.50153757674434 80.5584936482864 H 0.0 **** 0.06
36866 C 91.9225267930384 25.902729234013265 90.17000813798214 C 0.0 **** -0.24
36867 H 92.1278775056999 25.225434909166864 89.34033439817941 H 0.0 **** 0.06
36868 H 90.8639187896899 25.85206972978773 90.4255970671719 H 0.0 **** 0.06
36869 H 92.17824612861341 26.92124468486358 89.87877484161837 H 0.0 **** 0.06
36870 H 92.5196582081407 25.610065585188238 91.03299884554852 H 0.0 **** 0.06
36871 C 85.59248065294804 76.85716443479538 107.12348117529075 C 0.0 **** -0.24
36872 H 85.60135769337074 77.76050297783533 107.7340658845128 H 0.0 **** 0.06
36873 H 86.61408052500451 76.59964276914027 106.84185850640267 H 0.0 **** 0.06
36874 H 85.00089228347082 77.03215022931798 106.2256158958088 H 0.0 **** 0.06
36875 H 85.1551892786992 76.03854660354364 107.69454687134714 H 0.0 **** 0.06
36876 C 2.5559182793794974 17.178956608453007 24.492084169159824 C 0.0 **** -0.24
36877 H 1.987811698381691 17.955023570605647 23.979669377571014 H 0.0 **** 0.06
36878 H 2.5577083835238454 16.27126253176948 23.888771470731427 H 0.0 **** 0.06
36879 H 2.0960825238325214 16.971736158411716 25.458453010393526 H 0.0 **** 0.06
36880 H 3.5810733355428965 17.517559085819244 24.642415282808514 H 0.0 **** 0.06
36881 C 0.27503578211919333 27.919074890124833 55.2170747497357 C 0.0 **** -0.24
36882 H 1.3372694354833357 28.114879434650362 55.066690972339956 H 0.0 **** 0.06
36883 H -0.26122850026887434 28.08699464038166 54.28246915933451 H 0.0 **** 0.06
36884 H -0.11221002606658459 28.590700868845886 55.983519278597925 H 0.0 **** 0.06
36885 H 0.1373197119465175 26.885939234776302 55.53590379520426 H 0.0 **** 0.06
36886 C 25.16114443361998 36.51035099793043 22.635164947954777 C 0.0 **** -0.24
36887 H 26.12866017277272 36.56441783865314 23.135448972952645 H 0.0 **** 0.06
36888 H 24.751389971518385 37.51533241914723 22.528541048314338 H 0.0 **** 0.06
36889 H 24.479460272628486 35.90005270991409 23.227196740874504 H 0.0 **** 0.06
36890 H 25.287542910271732 36.06295825169488 21.649300292501323 H 0.0 **** 0.06
36891 C 48.435431903092905 96.72465934397474 4.932122510191832 C 0.0 **** -0.24
36892 H 48.040977950702484 96.84811692251711 3.923062390414856 H 0.0 **** 0.06
36893 H 49.3719176729098 97.27484388131248 5.0260712631696265 H 0.0 **** 0.06
36894 H 48.613883806730655 95.66661433238181 5.1253054987777205 H 0.0 **** 0.06
36895 H 47.713083940369586 97.10863861921416 5.653463197218599 H 0.0 **** 0.06
36896 C 39.755728961079114 87.88120162407657 31.199212739083293 C 0.0 **** -0.24
36897 H 39.522740973694965 87.01230251604886 31.81495937618641 H 0.0 **** 0.06
36898 H 39.3881361839434 87.71799992529148 30.186491811058687 H 0.0 **** 0.06
36899 H 40.83565782419333 88.02910564267268 31.175441935526948 H 0.0 **** 0.06
36900 H 39.27689207700405 88.76424091478924 31.62205526235465 H 0.0 **** 0.06
36901 C 24.085192056200704 30.922023152430654 69.61485501060966 C 0.0 **** -0.24
36902 H 23.119365769891743 31.31209483081676 69.93755718650931 H 0.0 **** 0.06
36903 H 23.979116073958245 29.87368069465697 69.33677424266654 H 0.0 **** 0.06
36904 H 24.802598138123308 31.01123387900617 70.43018309414362 H 0.0 **** 0.06
36905 H 24.43845810921696 31.492968439141976 68.75661815709603 H 0.0 **** 0.06
36906 C 75.91962473442013 116.43622037193143 78.80626675167787 C 0.0 **** -0.24
36907 H 76.75435719743126 116.80146604311554 78.20904467585473 H 0.0 **** 0.06
36908 H 76.13632670882922 116.58839882685584 79.86381578700406 H 0.0 **** 0.06
36909 H 75.7726433611823 115.3737943275319 78.61359525676704 H 0.0 **** 0.06
36910 H 75.01576780057707 116.98335865232931 78.53889567382492 H 0.0 **** 0.06
36911 C 99.01216021834469 29.362925792502715 83.20732115117352 C 0.0 **** -0.24
36912 H 98.84148635416219 29.7304127699433 82.19500165172877 H 0.0 **** 0.06
36913 H 98.62571921339452 28.347742275450187 83.29547283067251 H 0.0 **** 0.06
36914 H 98.49971606665991 30.010561611581096 83.91908012250002 H 0.0 **** 0.06
36915 H 100.0809780384576 29.365679723426823 83.4186355767684 H 0.0 **** 0.06
36916 C 44.820733069956425 103.03543464338097 34.35698409895076 C 0.0 **** -0.24
36917 H 44.68820960041786 104.09402784394476 34.13448037522724 H 0.0 **** 0.06
36918 H 43.85132107251956 102.53566221882878 34.33292199698329 H 0.0 **** 0.06
36919 H 45.262386532005046 102.92410683979867 35.347438199409424 H 0.0 **** 0.06
36920 H 45.47880677823653 102.58688456108914 33.61317515236115 H 0.0 **** 0.06
36921 C 105.5468291804381 4.241416262852965 66.01050315113659 C 0.0 **** -0.24
36922 H 105.39267864385997 3.2272491540319663 65.64156728863236 H 0.0 **** 0.06
36923 H 106.16481563761775 4.210125100393299 66.90886648187214 H 0.0 **** 0.06
36924 H 104.58324763322292 4.692532518177444 66.2468242806606 H 0.0 **** 0.06
36925 H 106.04790040139255 4.833986677045601 65.245077844403 H 0.0 **** 0.06
36926 C 98.23273332506105 89.2987085811115 35.705950533314535 C 0.0 **** -0.24
36927 H 98.69395641353805 88.3594566897238 36.01278300950404 H 0.0 **** 0.06
36928 H 98.16244308792756 89.33065349262279 34.61796530288423 H 0.0 **** 0.06
36929 H 98.84060255393925 90.13309287914058 36.055951697447355 H 0.0 **** 0.06
36930 H 97.23417844975538 89.37091823804855 36.13775828137393 H 0.0 **** 0.06
36931 C 103.86851062339267 90.66129882000212 42.44177913501487 C 0.0 **** -0.24
36932 H 104.08707864984018 91.71049802462625 42.64197914777428 H 0.0 **** 0.06
36933 H 102.8055945611953 90.54643994637252 42.22738021163785 H 0.0 **** 0.06
36934 H 104.13000935824147 90.06260660248162 43.31457695463213 H 0.0 **** 0.06
36935 H 104.45053482980967 90.3265188054115 41.58393238259566 H 0.0 **** 0.06
36936 C 86.70836170125793 0.392805833982834 103.2713732254202 C 0.0 **** -0.24
36937 H 86.88964784484187 0.7853884947169831 102.27062541705888 H 0.0 **** 0.06
36938 H 87.09556314078884 1.0913353108028332 104.01243092799479 H 0.0 **** 0.06
36939 H 87.21139224026155 -0.568325810765657 103.38046144231396 H 0.0 **** 0.06
36940 H 85.6359731783545 0.26001403488101005 103.4196643196268 H 0.0 **** 0.06
36941 C 84.09221590800647 82.36376772792099 92.28978385618194 C 0.0 **** -0.24
36942 H 83.44642831142522 82.73485195360354 93.0851565989255 H 0.0 **** 0.06
36943 H 83.97098269582943 81.28390119588585 92.19709716969822 H 0.0 **** 0.06
36944 H 85.13106435011863 82.5931936406094 92.52842306115764 H 0.0 **** 0.06
36945 H 83.82119270249055 82.84265688317339 91.34882553113931 H 0.0 **** 0.06
36946 C 28.51887832580067 87.50125951882677 6.511958904872124 C 0.0 **** -0.24
36947 H 29.55328503724911 87.66463531995288 6.209887624333275 H 0.0 **** 0.06
36948 H 27.865402028418373 88.1583712762071 5.937723012823044 H 0.0 **** 0.06
36949 H 28.41217162843654 87.72190248620007 7.574690012053065 H 0.0 **** 0.06
36950 H 28.24541234160165 86.46293288806874 6.3267858076385615 H 0.0 **** 0.06
36951 C 100.41949272112953 37.53790353242666 112.56229691538255 C 0.0 **** -0.24
36952 H 99.85931686482854 38.25375970301529 113.16219340929884 H 0.0 **** 0.06
36953 H 101.43419639127356 37.4518875942394 112.9519900392087 H 0.0 **** 0.06
36954 H 100.45582172044519 37.8800519049925 111.52754442419278 H 0.0 **** 0.06
36955 H 99.93009179529082 36.564589908087164 112.60519588993061 H 0.0 **** 0.06
36956 C 111.5354256808714 8.684799569466932 106.9578972227716 C 0.0 **** -0.24
36957 H 110.70593181618776 8.782120353425412 107.65800902432574 H 0.0 **** 0.06
36958 H 111.61412511169449 9.592288699151823 106.35925305090313 H 0.0 **** 0.06
36959 H 111.36023838496682 7.831388638668102 106.30347296312698 H 0.0 **** 0.06
36960 H 112.462296569473 8.533279787100497 107.51194697675834 H 0.0 **** 0.06
36961 C 62.85418272079216 65.50839537011973 27.887355966903378 C 0.0 **** -0.24
36962 H 62.66417270286818 66.3920362828083 28.496033924298565 H 0.0 **** 0.06
36963 H 61.91821114072531 65.16470789404647 27.444623309717393 H 0.0 **** 0.06
36964 H 63.27107087265863 64.71952591423468 28.512810337203007 H 0.0 **** 0.06
36965 H 63.56090907795039 65.7572952875104 27.096586358975927 H 0.0 **** 0.06
36966 C 89.47838477379918 92.07780955799632 3.5781651069215172 C 0.0 **** -0.24
36967 H 89.89354149806644 91.07057238515384 3.5944464382021692 H 0.0 **** 0.06
36968 H 90.2766751304789 92.80309986389705 3.7358751215706434 H 0.0 **** 0.06
36969 H 88.73502817498616 92.17712295721992 4.369480348255934 H 0.0 **** 0.06
36970 H 89.00623442563466 92.2598821036629 2.612193231269771 H 0.0 **** 0.06
36971 C 73.23938433477934 46.80018253046977 41.14511318072789 C 0.0 **** -0.24
36972 H 73.34756437221921 45.75731655943062 41.44201311626324 H 0.0 **** 0.06
36973 H 74.13314851129383 47.354702987533145 41.43432544198032 H 0.0 **** 0.06
36974 H 72.36915945472646 47.230072270037084 41.640089318452084 H 0.0 **** 0.06
36975 H 73.10921349423006 46.85904878802158 40.06468351614555 H 0.0 **** 0.06
36976 C 106.47400526483608 12.79355756171779 109.42509857304998 C 0.0 **** -0.24
36977 H 106.94123815758874 12.038282674431457 108.7929029924307 H 0.0 **** 0.06
36978 H 106.3418749952896 13.713451488708102 108.8550496714514 H 0.0 **** 0.06
36979 H 107.11045214699729 12.98838517683572 110.28806642330548 H 0.0 **** 0.06
36980 H 105.50270792123598 12.431908553102431 109.76333289962926 H 0.0 **** 0.06
36981 C 111.33075208233909 32.96273620674347 73.08505583836813 C 0.0 **** -0.24
36982 H 111.19005457401548 32.52264404330495 72.09748351028097 H 0.0 **** 0.06
36983 H 112.39432611495671 32.986667020876695 73.32304444288457 H 0.0 **** 0.06
36984 H 110.80418974808178 32.363770024232565 73.82742200780226 H 0.0 **** 0.06
36985 H 110.93353856812135 33.97795727745026 73.0895932934597 H 0.0 **** 0.06
36986 C 44.86722494624707 8.072093874286718 2.6903767537871204 C 0.0 **** -0.24
36987 H 44.253648765135225 7.704248130256648 1.868459665976502 H 0.0 **** 0.06
36988 H 45.608414660167995 7.318050377395229 2.957079274293477 H 0.0 **** 0.06
36989 H 44.23246626197295 8.278226423847052 3.5525303281318514 H 0.0 **** 0.06
36990 H 45.37330124963365 8.987794882221081 2.3847995974326324 H 0.0 **** 0.06
36991 C 81.61873324588407 71.79007652051484 8.065431880558108 C 0.0 **** -0.24
36992 H 80.63621429399359 71.33305381184195 7.948874167001016 H 0.0 **** 0.06
36993 H 81.50413834105052 72.86370637171316 8.211886197277334 H 0.0 **** 0.06
36994 H 82.21351007481294 71.60637221315571 7.170858128907634 H 0.0 **** 0.06
36995 H 82.1196858966828 71.35664725957344 8.931007110548911 H 0.0 **** 0.06
36996 C 35.023887550687164 65.92955522726396 16.651414657744425 C 0.0 **** -0.24
36997 H 34.4269631205504 66.83238859635452 16.782643958215914 H 0.0 **** 0.06
36998 H 34.588841943012355 65.11877250629843 17.23693471983384 H 0.0 **** 0.06
36999 H 36.04287504633918 66.11576475272395 16.987767668519666 H 0.0 **** 0.06
37000 H 35.03287458195685 65.6513828296722 15.597297801804999 H 0.0 **** 0.06
37001 C 5.878305805505569 36.33922153872001 74.74913013670911 C 0.0 **** -0.24
37002 H 5.113619123213796 36.81318622007183 74.13269863365386 H 0.0 **** 0.06
37003 H 6.708813821765654 37.03146349190318 74.89280186133763 H 0.0 **** 0.06
37004 H 6.237232996195628 35.438311413511265 74.25261516305264 H 0.0 **** 0.06
37005 H 5.452636338733832 36.076123622912924 75.71784061894431 H 0.0 **** 0.06
37006 C 1.0563697006186743 86.50510389807098 114.23628395968859 C 0.0 **** -0.24
37007 H 1.2797262654909929 86.63433912439541 113.17750115006754 H 0.0 **** 0.06
37008 H 1.3757104075761788 87.39145089968514 114.78561859701526 H 0.0 **** 0.06
37009 H 1.587503501999933 85.63189506710643 114.61606051226741 H 0.0 **** 0.06
37010 H -0.016616513942253164 86.36295415865354 114.36644163414289 H 0.0 **** 0.06
37011 C 107.44225909246032 30.038891390327656 67.78094248809123 C 0.0 **** -0.24
37012 H 107.95764167334593 29.49584077799929 68.57344411009561 H 0.0 **** 0.06
37013 H 108.12236618904336 30.190183993211562 66.94308581046155 H 0.0 **** 0.06
37014 H 107.11243497868477 31.00631375541736 68.16077012859557 H 0.0 **** 0.06
37015 H 106.57801184896229 29.464655561373682 67.44869435859866 H 0.0 **** 0.06
37016 C 46.6470235456776 78.34589136122995 8.443747995943028 C 0.0 **** -0.24
37017 H 45.68518506202989 78.85308387011233 8.366550397565362 H 0.0 **** 0.06
37018 H 47.44555372263703 79.0411014085283 8.18258985626261 H 0.0 **** 0.06
37019 H 46.66614073529418 77.49718077078597 7.759888474014332 H 0.0 **** 0.06
37020 H 46.79142928349046 77.99396585699202 9.464609061718903 H 0.0 **** 0.06
37021 C 69.7813143150758 2.4161155651430164 90.51524975100784 C 0.0 **** -0.24
37022 H 69.5566606587999 3.2616937480559756 91.16465038527082 H 0.0 **** 0.06
37023 H 69.81845620994915 1.5018956475452825 91.1079523819725 H 0.0 **** 0.06
37024 H 70.74641863704295 2.575796617324187 90.03214033975982 H 0.0 **** 0.06
37025 H 69.00533807282062 2.3261437405680283 89.75513863956675 H 0.0 **** 0.06
37026 C 43.651480470158106 63.18838171992993 44.347466486084215 C 0.0 **** -0.24
37027 H 44.05384229238312 64.13858106022622 43.9968882231999 H 0.0 **** 0.06
37028 H 44.442460959655634 62.61592998743286 44.83365774384271 H 0.0 **** 0.06
37029 H 43.262881230295065 62.62374704996375 43.49920216446304 H 0.0 **** 0.06
37030 H 42.84632387147772 63.374358209884115 45.059117827874445 H 0.0 **** 0.06
37031 C 101.54521672805203 57.32679196334602 96.97320810827281 C 0.0 **** -0.24
37032 H 102.03694392530895 57.589513379622254 97.90987068851712 H 0.0 **** 0.06
37033 H 100.46462789809249 57.36953904339794 97.10590089330591 H 0.0 **** 0.06
37034 H 101.8357368859154 56.317017711730564 96.68156273799701 H 0.0 **** 0.06
37035 H 101.84432566539957 58.030126592767466 96.19618224187857 H 0.0 **** 0.06
37036 C 92.83819003640204 34.02571619807074 41.84369194184819 C 0.0 **** -0.24
37037 H 93.73192402406673 34.60410673989126 41.611496218483694 H 0.0 **** 0.06
37038 H 92.1737975665325 34.02130319637967 40.97868198341581 H 0.0 **** 0.06
37039 H 92.32519671560289 34.47481219785747 42.694118069981386 H 0.0 **** 0.06
37040 H 93.12180875139543 33.002136188798346 42.08915145381809 H 0.0 **** 0.06
37041 C 87.06976738823195 37.6861563228475 44.657983366771745 C 0.0 **** -0.24
37042 H 87.68576097582292 38.4781381095002 45.08316530172332 H 0.0 **** 0.06
37043 H 87.29986327767452 36.74134998891271 45.152216045616704 H 0.0 **** 0.06
37044 H 87.27630901493154 37.598257008395315 43.590904509877916 H 0.0 **** 0.06
37045 H 86.01646612383061 37.92719526418554 44.8049755476904 H 0.0 **** 0.06
37046 C 39.20729574789661 59.862925649098315 112.78448140840513 C 0.0 **** -0.24
37047 H 39.448208850908316 60.32723203058117 113.74057418880781 H 0.0 **** 0.06
37048 H 38.169996284054406 60.079488497789555 112.52708020275065 H 0.0 **** 0.06
37049 H 39.3466955677969 58.78504047503415 112.85838084918024 H 0.0 **** 0.06
37050 H 39.864068632344896 60.26218640945737 112.01093357616628 H 0.0 **** 0.06
37051 C 53.790420436173235 35.89377416599662 116.06769223693773 C 0.0 **** -0.24
37052 H 53.3252829018229 36.52549924066079 116.82543200514652 H 0.0 **** 0.06
37053 H 53.94435179514426 36.47274927515062 115.15783793761128 H 0.0 **** 0.06
37054 H 53.139473028051555 35.045254613788956 115.85386033002656 H 0.0 **** 0.06
37055 H 54.74992672483131 35.53171413040175 116.43628028419485 H 0.0 **** 0.06
37056 C 18.72421592886658 91.98283822356774 57.05049086320096 C 0.0 **** -0.24
37057 H 18.411150469514702 92.9457250096556 57.45605480395443 H 0.0 **** 0.06
37058 H 17.936020291834364 91.2470851513273 57.21186635754549 H 0.0 **** 0.06
37059 H 19.634340051843303 91.65683762555818 57.55344774517101 H 0.0 **** 0.06
37060 H 18.9152283779797 92.08363776369114 55.98288580279362 H 0.0 **** 0.06
37061 C 51.31103517002303 26.738881378106043 92.0085829753485 C 0.0 **** -0.24
37062 H 50.889383230734865 27.725134838505475 92.20442414066281 H 0.0 **** 0.06
37063 H 50.923780758337216 26.027394346116253 92.7375666239108 H 0.0 **** 0.06
37064 H 52.39750263383647 26.786746771946724 92.08752832194625 H 0.0 **** 0.06
37065 H 51.03395194662889 26.417868469610383 91.00442433825597 H 0.0 **** 0.06
37066 C 51.26441480318278 49.63819357005406 43.613118825578226 C 0.0 **** -0.24
37067 H 50.759993836461085 50.07331821434849 44.47623876806662 H 0.0 **** 0.06
37068 H 50.555554674191185 49.54061154175929 42.79008777816634 H 0.0 **** 0.06
37069 H 51.6520991173633 48.65429747474161 43.876831357318196 H 0.0 **** 0.06
37070 H 52.0876521753973 50.28454981536646 43.30865897008806 H 0.0 **** 0.06
37071 C 48.45061536449667 90.88582278495767 32.288686565808405 C 0.0 **** -0.24
37072 H 48.45815997383539 91.85983960697027 32.77923457576799 H 0.0 **** 0.06
37073 H 47.968766893606784 90.15606193915744 32.9390749904606 H 0.0 **** 0.06
37074 H 49.474461886915975 90.57380586504476 32.08606469519134 H 0.0 **** 0.06
37075 H 47.89989066719994 90.9566633438782 31.350717542735026 H 0.0 **** 0.06
37076 C 38.78708578495517 12.274165322482332 22.85779866725386 C 0.0 **** -0.24
37077 H 38.51990833411629 12.538501990414431 23.882042988967555 H 0.0 **** 0.06
37078 H 39.74894898769587 12.721935997872691 22.606466994027812 H 0.0 **** 0.06
37079 H 38.02220358227221 12.64536380371581 22.176208740738332 H 0.0 **** 0.06
37080 H 38.85720969204739 11.189532463113466 22.769973734399855 H 0.0 **** 0.06
37081 C 19.465485565875838 72.23275645459776 91.97422371100947 C 0.0 **** -0.24
37082 H 18.777096084772893 71.54149394539934 91.48785857968019 H 0.0 **** 0.06
37083 H 20.4702161849618 71.80933649690533 91.96715764353763 H 0.0 **** 0.06
37084 H 19.147654926353113 72.39797061793485 93.00320761421463 H 0.0 **** 0.06
37085 H 19.467715681853406 73.18110216100393 91.43688451391085 H 0.0 **** 0.06
37086 C 83.44835164444015 90.08487205928441 110.1824809898651 C 0.0 **** -0.24
37087 H 83.81519778048803 89.47019230652356 111.0038320821146 H 0.0 **** 0.06
37088 H 84.28582419965136 90.38766180875496 109.55343720041171 H 0.0 **** 0.06
37089 H 82.95574905699414 90.97073618859781 110.58297366565219 H 0.0 **** 0.06
37090 H 82.7366355406269 89.51089793326125 109.5896810112817 H 0.0 **** 0.06
37091 C 109.48035145827954 39.30484216937302 64.8000995167773 C 0.0 **** -0.24
37092 H 110.15419265619268 38.903141340211334 65.55655865196056 H 0.0 **** 0.06
37093 H 108.53324550644739 38.76477617244987 64.83367181564594 H 0.0 **** 0.06
37094 H 109.93084301112188 39.18746063953171 63.81379379093394 H 0.0 **** 0.06
37095 H 109.30241281396529 40.36224203376159 64.99481291081966 H 0.0 **** 0.06
37096 C 7.784796228000744 61.47974508958322 106.4308094813153 C 0.0 **** -0.24
37097 H 7.497707205481106 61.30174198242713 107.46738064639558 H 0.0 **** 0.06
37098 H 7.692510332781467 62.54231091453772 106.20548269650234 H 0.0 **** 0.06
37099 H 7.1315402080618355 60.90910982476106 105.76977770935238 H 0.0 **** 0.06
37100 H 8.817757985181856 61.16374828747735 106.28137702869185 H 0.0 **** 0.06
37101 C 70.73495739905533 39.220655081441976 107.7287817599589 C 0.0 **** -0.24
37102 H 69.88172272868596 39.88780205282103 107.61113647377647 H 0.0 **** 0.06
37103 H 70.38048928665219 38.202642086588554 107.89303131271612 H 0.0 **** 0.06
37104 H 71.33130370381247 39.54103079096106 108.58258818159709 H 0.0 **** 0.06
37105 H 71.34614966436038 39.25031553246774 106.8263011316613 H 0.0 **** 0.06
37106 C 106.3702125774166 23.12685760886248 52.294072665540206 C 0.0 **** -0.24
37107 H 105.98617381251591 24.143532021990488 52.37286533432241 H 0.0 **** 0.06
37108 H 107.41762879155982 23.110216451925417 52.59321349927425 H 0.0 **** 0.06
37109 H 106.28112138305698 22.784109361914002 51.26255463787786 H 0.0 **** 0.06
37110 H 105.79415315338929 22.47003687604127 52.94637632814887 H 0.0 **** 0.06
37111 C 86.12600075299085 101.42018300888299 60.778061192402845 C 0.0 **** -0.24
37112 H 85.55872874441684 101.73031640719648 59.90040652350359 H 0.0 **** 0.06
37113 H 86.80330103232501 102.22215053308713 61.073551379781065 H 0.0 **** 0.06
37114 H 86.70156340458092 100.52561151271823 60.54161162250824 H 0.0 **** 0.06
37115 H 85.43887688202418 101.20521579255225 61.5963825480913 H 0.0 **** 0.06
37116 C 61.37749652617907 58.83042820828723 10.922811472001278 C 0.0 **** -0.24
37117 H 61.335372190208204 58.56927011807255 9.865416581168876 H 0.0 **** 0.06
37118 H 60.445545003106645 58.53554659352025 11.407217577816539 H 0.0 **** 0.06
37119 H 61.51667032273798 59.90583013629336 11.026461005349471 H 0.0 **** 0.06
37120 H 62.211763315630776 58.309954774153965 11.392752183682251 H 0.0 **** 0.06
37121 C 66.70366360305013 86.09046318959116 49.039088817279776 C 0.0 **** -0.24
37122 H 65.80316325085349 85.5090262852724 49.23640631711726 H 0.0 **** 0.06
37123 H 66.92157802150936 86.72489009432388 49.89831450520495 H 0.0 **** 0.06
37124 H 66.5467807600609 86.71351970698396 48.15775834617236 H 0.0 **** 0.06
37125 H 67.54063870901305 85.4154924645951 48.863085695443516 H 0.0 **** 0.06
37126 C 100.0105967842868 30.650515865629387 89.96469675365114 C 0.0 **** -0.24
37127 H 100.13427752878872 31.578802427783927 90.5229396478332 H 0.0 **** 0.06
37128 H 100.46627313987679 30.75665488748112 88.97995741646736 H 0.0 **** 0.06
37129 H 98.94807098709498 30.432784821458995 89.85201958738787 H 0.0 **** 0.06
37130 H 100.49386365797199 29.835815442432903 90.502863312552 H 0.0 **** 0.06
37131 C 38.32949042763059 29.90482306746489 14.692162752055964 C 0.0 **** -0.24
37132 H 39.28014204974704 29.54397113794326 15.084498489260397 H 0.0 **** 0.06
37133 H 37.51003274051993 29.42266846872218 15.225138365007211 H 0.0 **** 0.06
37134 H 38.2623496509201 29.668313931423228 13.630260445485604 H 0.0 **** 0.06
37135 H 38.26704526853041 30.98430893241661 14.828110571831516 H 0.0 **** 0.06
37136 C 28.503233242009202 114.32372177910028 47.029420000584025 C 0.0 **** -0.24
37137 H 28.167852547702495 113.49365754534158 46.40719805095188 H 0.0 **** 0.06
37138 H 28.382794201432688 114.06143613454776 48.08039841571639 H 0.0 **** 0.06
37139 H 27.908639200941195 115.2095376436489 46.80402656982841 H 0.0 **** 0.06
37140 H 29.553724936172443 114.52889732059234 46.82338320364107 H 0.0 **** 0.06
37141 C 87.84054940117315 56.341630107581864 81.91970212158881 C 0.0 **** -0.24
37142 H 87.16254700813118 55.604360770852225 81.49052312929228 H 0.0 **** 0.06
37143 H 87.54145444643257 56.55507204893988 82.94640157637832 H 0.0 **** 0.06
37144 H 87.80033834602057 57.25813399908813 81.33041637019406 H 0.0 **** 0.06
37145 H 88.85709525526428 55.94922474274949 81.91205483293456 H 0.0 **** 0.06
37146 C 64.99935467806532 59.75428055541297 94.88311284106388 C 0.0 **** -0.24
37147 H 64.64386195023786 60.71725186720003 95.25059777282362 H 0.0 **** 0.06
37148 H 64.95280720458007 59.74232299505801 93.7936683136146 H 0.0 **** 0.06
37149 H 64.37209355241345 58.95808523080701 95.28267058199498 H 0.0 **** 0.06
37150 H 66.02986704334191 59.60091689812872 95.20395990320407 H 0.0 **** 0.06
37151 C 81.7765652464251 16.733865838493273 114.21175307683211 C 0.0 **** -0.24
37152 H 82.70245030745477 16.326691685848914 113.8034883059251 H 0.0 **** 0.06
37153 H 81.33737805932924 16.014571978512947 114.90202320075707 H 0.0 **** 0.06
37154 H 81.07725692309643 16.931692268571908 113.39887142086414 H 0.0 **** 0.06
37155 H 81.99103480644226 17.662710973268815 114.74028357573363 H 0.0 **** 0.06
37156 C 4.075151081913715 21.503985820224074 34.7233582479968 C 0.0 **** -0.24
37157 H 4.5729648958415705 22.25303667856619 35.340527820922915 H 0.0 **** 0.06
37158 H 4.70701690150481 21.258397466955586 33.869956878133166 H 0.0 **** 0.06
37159 H 3.1233269126280074 21.900689096297867 34.37000540379029 H 0.0 **** 0.06
37160 H 3.8976382413697728 20.605586226073427 35.31572925434469 H 0.0 **** 0.06
37161 C 89.39549920984314 105.0922497384422 42.9815655901933 C 0.0 **** -0.24
37162 H 89.77025652540368 106.10759737445451 43.112302420714684 H 0.0 **** 0.06
37163 H 89.86910128500787 104.64055477415596 42.10921487530658 H 0.0 **** 0.06
37164 H 88.31589770887544 105.11913847017308 42.835632287141124 H 0.0 **** 0.06
37165 H 89.62840204295429 104.50255206069733 43.86752203100164 H 0.0 **** 0.06
37166 C 114.0509862832304 30.973074288314024 75.72876505517686 C 0.0 **** -0.24
37167 H 115.00283840375904 31.4877180743579 75.85756428922573 H 0.0 **** 0.06
37168 H 113.49805005529197 30.991561438810606 76.66819027692472 H 0.0 **** 0.06
37169 H 114.23376370070304 29.938830220393953 75.43500722630313 H 0.0 **** 0.06
37170 H 113.47008340553319 31.47303143677607 74.95410085226919 H 0.0 **** 0.06
37171 C 53.475283104088106 96.67277918372145 74.9117870644275 C 0.0 **** -0.24
37172 H 53.37298318021567 96.98908389353241 73.87380199169556 H 0.0 **** 0.06
37173 H 54.51251615588697 96.78911724424765 75.22614358697851 H 0.0 **** 0.06
37174 H 53.182153316997926 95.6266623518361 75.00223864484997 H 0.0 **** 0.06
37175 H 52.83280592094107 97.28607269338505 75.5426159102847 H 0.0 **** 0.06
37176 C 46.65208569698905 36.252213804026 56.17076180659645 C 0.0 **** -0.24
37177 H 47.72823723125492 36.410235211187704 56.244803022950585 H 0.0 **** 0.06
37178 H 46.38068247427765 35.341517287944235 56.70522803117384 H 0.0 **** 0.06
37179 H 46.3717827511511 36.15507246099372 55.12172376838029 H 0.0 **** 0.06
37180 H 46.129717949077644 37.102355001783664 56.61003606287742 H 0.0 **** 0.06
37181 C 20.34856755463533 45.772620649038345 43.17868557380791 C 0.0 **** -0.24
37182 H 20.605758038418283 44.94396836629872 42.51970806714057 H 0.0 **** 0.06
37183 H 19.310221961024155 45.675315997457304 43.495408148034684 H 0.0 **** 0.06
37184 H 20.479966790584868 46.714329519545856 42.645734722252314 H 0.0 **** 0.06
37185 H 20.998224010657857 45.75649283729999 44.05297000460925 H 0.0 **** 0.06
37186 C 13.834266074210149 46.42595191619192 69.09835983617404 C 0.0 **** -0.24
37187 H 14.706843778955545 46.985296841479965 69.43694131096831 H 0.0 **** 0.06
37188 H 13.225386433616848 47.05908796494094 68.45204384302781 H 0.0 **** 0.06
37189 H 13.245058633756969 46.11465004881906 69.9620054883207 H 0.0 **** 0.06
37190 H 14.159261324336029 45.54563224011072 68.54444803816855 H 0.0 **** 0.06
37191 C 70.95510178837256 65.187106995823 16.13937189934782 C 0.0 **** -0.24
37192 H 71.65473770483166 65.05329700731136 16.964828424932858 H 0.0 **** 0.06
37193 H 70.13423635633475 65.82808596996259 16.4599585874591 H 0.0 **** 0.06
37194 H 70.56199761974887 64.21701501638961 15.834221665005828 H 0.0 **** 0.06
37195 H 71.4715878222776 65.65054775418872 15.298163323942276 H 0.0 **** 0.06
37196 C 60.12156177985745 26.711335991615826 24.901603211820685 C 0.0 **** -0.24
37197 H 60.640677144958964 25.775526201840307 24.69887399123766 H 0.0 **** 0.06
37198 H 60.69094453753424 27.292358051266916 25.627434208973824 H 0.0 **** 0.06
37199 H 59.130551751616075 26.498520943001424 25.30308406053851 H 0.0 **** 0.06
37200 H 60.0244249596359 27.280331763765417 23.976052934806575 H 0.0 **** 0.06
37201 C 64.81359454740652 58.84830019108881 20.55900683740353 C 0.0 **** -0.24
37202 H 64.62080589974877 59.66323822315405 21.2564073541497 H 0.0 **** 0.06
37203 H 64.13227592327277 58.02354361471902 20.765635562501274 H 0.0 **** 0.06
37204 H 65.84268931194742 58.507904844963036 20.67565143830066 H 0.0 **** 0.06
37205 H 64.6607818014547 59.199460864480784 19.538944898814492 H 0.0 **** 0.06
37206 C 60.5365188106901 18.3316736551554 16.36275678755007 C 0.0 **** -0.24
37207 H 61.439226038818646 17.734018685569993 16.237038253522485 H 0.0 **** 0.06
37208 H 60.50671485882708 18.736950165963606 17.37383472701029 H 0.0 **** 0.06
37209 H 59.65961465259221 17.70606939190141 16.19465741989842 H 0.0 **** 0.06
37210 H 60.54146097902321 19.15081742842665 15.642535908960838 H 0.0 **** 0.06
37211 C 0.7643621679757899 26.663000394343058 59.52502933771052 C 0.0 **** -0.24
37212 H 1.0753208686981868 27.51589573345015 58.92076014285749 H 0.0 **** 0.06
37213 H 1.5038822536342717 25.867083390990004 59.43648478153415 H 0.0 **** 0.06
37214 H -0.20246897641737505 26.30360322631651 59.17388815753634 H 0.0 **** 0.06
37215 H 0.6816965968481998 26.968852465395003 60.56848510665759 H 0.0 **** 0.06
37216 C 56.68832568601613 67.74720607420943 2.5013466833187863 C 0.0 **** -0.24
37217 H 57.15740594072719 67.7983519805372 1.5186616936485393 H 0.0 **** 0.06
37218 H 55.65286568451984 67.42256436605354 2.392294444365831 H 0.0 **** 0.06
37219 H 56.713492603572405 68.73214493122126 2.9678979208245266 H 0.0 **** 0.06
37220 H 57.22920887763652 67.03576074211819 3.12558853889891 H 0.0 **** 0.06
37221 C 65.66421099055259 102.87668551874086 4.251389672313763 C 0.0 **** -0.24
37222 H 66.56758282680798 102.33916417567733 3.964966846279509 H 0.0 **** 0.06
37223 H 64.78805603051106 102.3025961145502 3.948381649832612 H 0.0 **** 0.06
37224 H 65.64876338746669 103.849137865508 3.759910545131504 H 0.0 **** 0.06
37225 H 65.65203853412419 103.01493167737664 5.3322267365503535 H 0.0 **** 0.06
37226 C 63.665077555316465 48.59879600380219 43.160846740948465 C 0.0 **** -0.24
37227 H 63.44280448154871 48.90015272656035 44.18451503317084 H 0.0 **** 0.06
37228 H 63.96361957923816 49.47260050698543 42.58206846825274 H 0.0 **** 0.06
37229 H 62.776646676328575 48.15139316696457 42.71335670265732 H 0.0 **** 0.06
37230 H 64.47525440185893 47.87084949323156 43.16545288109816 H 0.0 **** 0.06
37231 C 114.80174984745422 44.405463441491065 109.07027096509927 C 0.0 **** -0.24
37232 H 114.23199939186934 44.204979186632215 108.16270858760384 H 0.0 **** 0.06
37233 H 114.63566116777157 45.43690508613122 109.38297484347011 H 0.0 **** 0.06
37234 H 115.86335303100395 44.2523042742464 108.87301734940822 H 0.0 **** 0.06
37235 H 114.4770735869592 43.72851950771809 109.85972085699296 H 0.0 **** 0.06
37236 C 1.6002853065071179 66.49142722504442 26.285264755063366 C 0.0 **** -0.24
37237 H 2.2342616925865855 67.27953362795861 25.87794638594761 H 0.0 **** 0.06
37238 H 2.0026352482422283 65.51907312442142 26.001481421541513 H 0.0 **** 0.06
37239 H 0.5899337039360546 66.59760475892662 25.890252177145584 H 0.0 **** 0.06
37240 H 1.575434113137078 66.57222020830616 27.371948643291915 H 0.0 **** 0.06
37241 C 30.34273907962495 78.31293315432904 72.57934312816215 C 0.0 **** -0.24
37242 H 31.167747775361306 78.91975378398212 72.20457731950407 H 0.0 **** 0.06
37243 H 29.50730022248652 78.36502836263597 71.8810273092212 H 0.0 **** 0.06
37244 H 30.02800496215184 78.69022801645991 73.55229173103919 H 0.0 **** 0.06
37245 H 30.669795583772668 77.27791227087994 72.6794120426249 H 0.0 **** 0.06
37246 C 97.53224458765061 56.00063261730401 24.995814644203648 C 0.0 **** -0.24
37247 H 96.91325902680012 55.562183394138884 24.213222730318222 H 0.0 **** 0.06
37248 H 98.11717542291291 55.21771036117511 25.478490128553517 H 0.0 **** 0.06
37249 H 96.89315916236734 56.48529319209783 25.73500136335923 H 0.0 **** 0.06
37250 H 98.20294227033344 56.73904494941931 24.556918541260643 H 0.0 **** 0.06
37251 C 6.372240831878685 14.183215250906756 78.40539628384059 C 0.0 **** -0.24
37252 H 5.282149481350132 14.178139836634205 78.41808782472324 H 0.0 **** 0.06
37253 H 6.730655202834441 13.428887966782437 77.70389821714252 H 0.0 **** 0.06
37254 H 6.748552260475947 13.959767631207285 79.40320527389665 H 0.0 **** 0.06
37255 H 6.7269452295509495 15.16647147686539 78.09429658204405 H 0.0 **** 0.06
37256 C 59.53147887247285 17.347856870165003 34.078341957482365 C 0.0 **** -0.24
37257 H 59.42832681050208 16.829979813722275 35.031171895959616 H 0.0 **** 0.06
37258 H 60.451181491336975 17.028065288343925 33.5881017890054 H 0.0 **** 0.06
37259 H 59.567733156655486 18.424433464667175 34.251612148291066 H 0.0 **** 0.06
37260 H 58.67898418439183 17.11118723424073 33.44153644096896 H 0.0 **** 0.06
37261 C 65.38845490376914 30.97472674535077 68.04295256193086 C 0.0 **** -0.24
37262 H 66.10788817094254 31.513379036249965 68.65916957826721 H 0.0 **** 0.06
37263 H 65.6285845022908 29.9112878492678 68.0510449106153 H 0.0 **** 0.06
37264 H 65.43448186309331 31.349394811025917 67.02028187240259 H 0.0 **** 0.06
37265 H 64.38502401600283 31.124518489247414 68.44083171964601 H 0.0 **** 0.06
37266 C 59.544250416264276 39.83382510367096 41.77950887026389 C 0.0 **** -0.24
37267 H 60.231311931114874 38.99033418777202 41.8460183151737 H 0.0 **** 0.06
37268 H 59.683068293367 40.34034216163843 40.82460939558247 H 0.0 **** 0.06
37269 H 59.74464871703469 40.530136046858104 42.594401263275536 H 0.0 **** 0.06
37270 H 58.518067350745696 39.473279658387355 41.85459746394841 H 0.0 **** 0.06
37271 C 4.9845493735737705 78.48645483312905 14.25571398201177 C 0.0 **** -0.24
37272 H 5.6552312988003735 79.32288532565786 14.453506240989867 H 0.0 **** 0.06
37273 H 4.4002919896609285 78.6944518295515 13.357927998972457 H 0.0 **** 0.06
37274 H 4.312565996545317 78.35120314366199 15.10354670136337 H 0.0 **** 0.06
37275 H 5.569983903105992 77.57927656845641 14.106462630198564 H 0.0 **** 0.06
37276 C 58.971800568077356 56.65078734433663 70.00471073532637 C 0.0 **** -0.24
37277 H 59.141436033861396 57.71031631957009 69.81520591349147 H 0.0 **** 0.06
37278 H 59.929530155545024 56.13397469122027 70.06388563777344 H 0.0 **** 0.06
37279 H 58.379005271510096 56.22687051171324 69.19409663063297 H 0.0 **** 0.06
37280 H 58.43614846744032 56.53200395977789 70.94656491780023 H 0.0 **** 0.06
37281 C 23.183797737497628 82.66821027169956 73.47861490817854 C 0.0 **** -0.24
37282 H 23.89296653436054 83.48131147567267 73.32627001592573 H 0.0 **** 0.06
37283 H 22.754616625326605 82.74316565280222 74.47810641361923 H 0.0 **** 0.06
37284 H 23.699255365271654 81.7126664491874 73.37530721369893 H 0.0 **** 0.06
37285 H 22.389650823698958 82.73518796972908 72.7358029776122 H 0.0 **** 0.06
37286 C 113.33005786734829 63.96568634998192 28.184361694306318 C 0.0 **** -0.24
37287 H 113.6809628731738 64.93608868410519 28.537732666532236 H 0.0 **** 0.06
37288 H 112.2883616590933 64.04858859421199 27.87199287618145 H 0.0 **** 0.06
37289 H 113.41241655318487 63.23544795030875 28.988955288067245 H 0.0 **** 0.06
37290 H 113.93889525103913 63.645744056287356 27.33904524150347 H 0.0 **** 0.06
37291 C 49.31473650635162 104.2800860638904 27.578059662285014 C 0.0 **** -0.24
37292 H 50.02683984155884 105.10249765293528 27.500819388910493 H 0.0 **** 0.06
37293 H 49.7893762687482 103.35686244458773 27.245017269335406 H 0.0 **** 0.06
37294 H 48.447459189534754 104.4901904263971 26.951873430824904 H 0.0 **** 0.06
37295 H 48.997069847611186 104.17211659897663 28.614644629556558 H 0.0 **** 0.06
37296 C 28.556107795369606 9.172265030799704 90.06393567626475 C 0.0 **** -0.24
37297 H 28.326751704569233 10.230953135719037 90.18634181632072 H 0.0 **** 0.06
37298 H 29.319854500651033 9.052411066967625 89.29560764933524 H 0.0 **** 0.06
37299 H 27.654699308415232 8.636749918638785 89.76808403034056 H 0.0 **** 0.06
37300 H 28.923964869761903 8.769107094971623 91.00777562610725 H 0.0 **** 0.06
37301 C 96.48867593573124 116.35123683695443 71.50769735004857 C 0.0 **** -0.24
37302 H 96.90376654262684 116.78348276696602 72.41741056243285 H 0.0 **** 0.06
37303 H 97.21543973157773 116.43855737250401 70.69986723692858 H 0.0 **** 0.06
37304 H 95.57787319584114 116.88429920090897 71.23571789039485 H 0.0 **** 0.06
37305 H 96.25782712450109 115.2995502728333 71.67752716739236 H 0.0 **** 0.06
37306 C 94.30289483743837 21.47805608152032 36.61049580850579 C 0.0 **** -0.24
37307 H 93.55800405987986 22.086598591228608 37.123490665233305 H 0.0 **** 0.06
37308 H 95.23574421642044 21.494306448411606 37.17509388961281 H 0.0 **** 0.06
37309 H 94.47460963148362 21.880614490025835 35.61186185978636 H 0.0 **** 0.06
37310 H 93.9426022355172 20.452944098335735 36.532313001443015 H 0.0 **** 0.06
37311 C 109.59324501634097 66.49023480362695 84.09864416258245 C 0.0 **** -0.24
37312 H 109.03939789749485 65.9189007263688 84.84447844974733 H 0.0 **** 0.06
37313 H 110.50769596555467 66.88024444749391 84.5456373460905 H 0.0 **** 0.06
37314 H 108.97802164068779 67.31818125308229 83.74505132669029 H 0.0 **** 0.06
37315 H 109.84558161643218 65.84121532944215 83.25961199841777 H 0.0 **** 0.06
37316 C 23.04856798913147 34.65642013242359 1.1134372163026285 C 0.0 **** -0.24
37317 H 24.09263811647807 34.796883963882436 0.8339690864125657 H 0.0 **** 0.06
37318 H 22.541329899093483 35.6209869013407 1.115968897948278 H 0.0 **** 0.06
37319 H 22.996501145665377 34.2150711503391 2.109314293521635 H 0.0 **** 0.06
37320 H 22.56687034305702 33.993194610531816 0.39567249774768243 H 0.0 **** 0.06
37321 C 37.15080929244033 100.35352201747355 36.09353296310226 C 0.0 **** -0.24
37322 H 36.52707107688073 99.82226150710312 36.81219202959173 H 0.0 **** 0.06
37323 H 37.45260444840318 101.31327525659981 36.51425428840321 H 0.0 **** 0.06
37324 H 36.585828364806105 100.52055344391442 35.17588647250912 H 0.0 **** 0.06
37325 H 38.037161309093364 99.75850924455472 35.872440463396714 H 0.0 **** 0.06
37326 C 3.2978296431811316 94.6288558448843 0.5203370278807427 C 0.0 **** -0.24
37327 H 4.047721585865105 95.39764612182634 0.7105280729422958 H 0.0 **** 0.06
37328 H 2.8091678396027078 94.35867560165937 1.4565246430845207 H 0.0 **** 0.06
37329 H 3.781025364677049 93.74939639336523 0.09455663880018506 H 0.0 **** 0.06
37330 H 2.5560653513414593 95.01140745754492 -0.18039968062177536 H 0.0 **** 0.06
37331 C 3.737363508711894 93.52996603962768 30.403532366181786 C 0.0 **** -0.24
37332 H 4.627518959432692 92.93811011381962 30.619089462676392 H 0.0 **** 0.06
37333 H 2.8581173884106192 93.01465652934297 30.79042685512544 H 0.0 **** 0.06
37334 H 3.639079228442469 93.65729305682777 29.32504126784677 H 0.0 **** 0.06
37335 H 3.826045401543311 94.5068729963296 30.87873577620458 H 0.0 **** 0.06
37336 C 82.51098757213015 11.59166344766058 44.19215173516167 C 0.0 **** -0.24
37337 H 83.04706516257721 11.424071037807522 45.12602942358572 H 0.0 **** 0.06
37338 H 82.12334929051727 10.64264246390087 43.82123972106646 H 0.0 **** 0.06
37339 H 83.18992149538869 12.019959055296766 43.455917079284774 H 0.0 **** 0.06
37340 H 81.68348741775242 12.278494133998748 44.367363079626074 H 0.0 **** 0.06
37341 C 114.19516450684453 71.88730208420407 74.79659721691144 C 0.0 **** -0.24
37342 H 114.25761130057762 72.31988658216233 73.7981689506341 H 0.0 **** 0.06
37343 H 115.00986470978346 71.17645847723077 74.93531967823989 H 0.0 **** 0.06
37344 H 113.24062276069078 71.37345210542463 74.91131092079314 H 0.0 **** 0.06
37345 H 114.27301997413794 72.68022683930997 75.54123934085791 H 0.0 **** 0.06
37346 C 91.71037937669627 98.31625993204489 81.44754400448826 C 0.0 **** -0.24
37347 H 90.75102916132181 98.47028978495695 80.95239453148102 H 0.0 **** 0.06
37348 H 91.57254885970605 98.36704065653521 82.52798422946367 H 0.0 **** 0.06
37349 H 92.40947287474586 99.0898944594361 81.13309408913895 H 0.0 **** 0.06
37350 H 92.1053337222425 97.33749551664027 81.17699235499774 H 0.0 **** 0.06
37351 C 28.467618779545774 54.52663608947757 54.00232866810777 C 0.0 **** -0.24
37352 H 28.790441651287892 54.816417665053486 53.00206568633276 H 0.0 **** 0.06
37353 H 29.315620875878324 54.57505896569476 54.68556848297138 H 0.0 **** 0.06
37354 H 28.078902188371444 53.508408887632264 53.97674023407736 H 0.0 **** 0.06
37355 H 27.686374435904327 55.20510106318959 54.3425262885502 H 0.0 **** 0.06
37356 C 43.96334331368333 42.33124393982595 31.256106036087175 C 0.0 **** -0.24
37357 H 43.64954444363691 41.76391611604686 32.13228202852201 H 0.0 **** 0.06
37358 H 43.08280518820612 42.66104941285039 30.704052623753654 H 0.0 **** 0.06
37359 H 44.57925151667024 41.70002142270647 30.615720080841868 H 0.0 **** 0.06
37360 H 44.540616445104355 43.199278783337604 31.57414721972492 H 0.0 **** 0.06
37361 C 103.73771541642728 47.5223456562386 59.23788956092694 C 0.0 **** -0.24
37362 H 104.5587091442057 46.966552537429834 59.691238537077474 H 0.0 **** 0.06
37363 H 103.31314312624326 48.20658015671938 59.972063549948864 H 0.0 **** 0.06
37364 H 102.96919607642408 46.826125942418116 58.90214695513699 H 0.0 **** 0.06
37365 H 104.11049310280129 48.09025146962648 58.38487560582663 H 0.0 **** 0.06
37366 C 95.42859761796566 13.801795732709849 87.85129603959115 C 0.0 **** -0.24
37367 H 94.8268390032483 13.847015307099014 88.75907229592801 H 0.0 **** 0.06
37368 H 95.2558527144858 14.699277024845372 87.25722743974549 H 0.0 **** 0.06
37369 H 95.14656665573352 12.922814504839664 87.27203834334043 H 0.0 **** 0.06
37370 H 96.48332500488397 13.739377347406986 88.11704965490412 H 0.0 **** 0.06
37371 C 46.4412196662976 43.93303786825547 112.26993844529977 C 0.0 **** -0.24
37372 H 47.51360639888151 43.80564904318385 112.41812330944094 H 0.0 **** 0.06
37373 H 46.0595541055616 44.6596948400113 112.98797471073902 H 0.0 **** 0.06
37374 H 45.93912882021331 42.976942763530175 112.41799552923487 H 0.0 **** 0.06
37375 H 46.253853432288565 44.28890977953694 111.25752846785673 H 0.0 **** 0.06
37376 C 91.26347625067405 34.41954812107261 83.01318584977327 C 0.0 **** -0.24
37377 H 92.11559180067943 35.092198927909436 82.9176561549244 H 0.0 **** 0.06
37378 H 91.33924057369862 33.62930843928609 82.26597904895814 H 0.0 **** 0.06
37379 H 90.34101914309696 34.97854315520158 82.85965625567022 H 0.0 **** 0.06
37380 H 91.25972499625271 33.97930972414048 84.01036991146484 H 0.0 **** 0.06
37381 C 83.25435843541422 55.708227746023994 99.1952655248777 C 0.0 **** -0.24
37382 H 84.03502500565463 55.13514208749305 99.69548797403888 H 0.0 **** 0.06
37383 H 82.29696192192264 55.20133362954252 99.31864816072402 H 0.0 **** 0.06
37384 H 83.48842693058498 55.791910107576484 98.13400911641202 H 0.0 **** 0.06
37385 H 83.19694432322859 56.704498309491754 99.63536509628545 H 0.0 **** 0.06
37386 C 82.46081780853297 32.741761283996055 113.24790981989241 C 0.0 **** -0.24
37387 H 83.1671745455485 32.67817846775063 114.07584301245478 H 0.0 **** 0.06
37388 H 82.97346739565478 33.1141718581612 112.36047036548726 H 0.0 **** 0.06
37389 H 81.6505090340739 33.42157221207961 113.51273958103201 H 0.0 **** 0.06
37390 H 82.05199711065669 31.75222764777891 113.04301522231592 H 0.0 **** 0.06
37391 C 107.94485794593152 92.65150249861313 99.09099032176417 C 0.0 **** -0.24
37392 H 107.0451312110826 92.08106083633277 98.8579964561765 H 0.0 **** 0.06
37393 H 108.75722775674859 91.96623428137508 99.33284094079221 H 0.0 **** 0.06
37394 H 107.75130307168766 93.30216174692669 99.94388540741997 H 0.0 **** 0.06
37395 H 108.2235074766659 93.25727570869168 98.22863817137886 H 0.0 **** 0.06
37396 C 107.40913922970563 89.28647154166822 47.89730240727036 C 0.0 **** -0.24
37397 H 108.2931494767418 89.79031444988334 47.50626509402616 H 0.0 **** 0.06
37398 H 106.80147504272693 88.9240109769622 47.06786852280284 H 0.0 **** 0.06
37399 H 106.82691731089588 89.98661279005898 48.49625050534074 H 0.0 **** 0.06
37400 H 107.71671174612723 88.4442043519384 48.51807141990075 H 0.0 **** 0.06
37401 C 87.64817673408845 18.849277752716844 50.28193759292566 C 0.0 **** -0.24
37402 H 87.38237610192004 19.69081369123957 50.923383132376955 H 0.0 **** 0.06
37403 H 87.28781695643465 17.92305442195594 50.729020482516944 H 0.0 **** 0.06
37404 H 88.73194340429671 18.804592256735077 50.17373414972013 H 0.0 **** 0.06
37405 H 87.19069856871943 18.98274863089283 49.30117550660037 H 0.0 **** 0.06
37406 C 112.93076097064369 50.072154407803836 88.05907836411728 C 0.0 **** -0.24
37407 H 113.56066287314945 50.568049584384 88.79770041967694 H 0.0 **** 0.06
37408 H 113.40942977239172 50.12110904039126 87.08074068207233 H 0.0 **** 0.06
37409 H 111.96178943499626 50.570520644801064 88.01557797337432 H 0.0 **** 0.06
37410 H 112.78952329978375 49.02928743094286 88.34338694401424 H 0.0 **** 0.06
37411 C 2.76537724344594 110.43097224405943 102.48050408677574 C 0.0 **** -0.24
37412 H 3.516470115770119 110.54618626728049 103.26191254983175 H 0.0 **** 0.06
37413 H 2.691564446341019 109.37946502361524 102.19985785986208 H 0.0 **** 0.06
37414 H 3.0523500108471353 111.02089417960741 101.61079572891956 H 0.0 **** 0.06
37415 H 1.7999164373543834 110.77623986684549 102.85127316042403 H 0.0 **** 0.06
37416 C 33.55605721842076 75.65869500780653 55.20362335034533 C 0.0 **** -0.24
37417 H 32.54148397368991 75.54928514555644 55.58612766599113 H 0.0 **** 0.06
37418 H 34.270022857763195 75.42536353523252 55.99424622067182 H 0.0 **** 0.06
37419 H 33.708518533012665 76.6836598907135 54.866329012365235 H 0.0 **** 0.06
37420 H 33.70443024577938 74.97562282017927 54.367312527975756 H 0.0 **** 0.06
37421 C 96.68930234930076 27.08433191404771 86.25539352806456 C 0.0 **** -0.24
37422 H 96.50113210620393 26.329818458338565 85.4906501377925 H 0.0 **** 0.06
37423 H 96.07715611467032 27.963755720910342 86.0556619211741 H 0.0 **** 0.06
37424 H 97.74286821987465 27.362376217088467 86.23976485754511 H 0.0 **** 0.06
37425 H 96.43436554383601 26.6789375478036 87.2350489031889 H 0.0 **** 0.06
37426 C 51.52076482839274 16.305407700189477 115.37051857859552 C 0.0 **** -0.24
37427 H 50.92558095482477 16.656165295687742 116.21357980219514 H 0.0 **** 0.06
37428 H 52.580208563607435 16.404130457444438 115.60861057357235 H 0.0 **** 0.06
37429 H 51.28838638096742 16.90226400527831 114.48907163162676 H 0.0 **** 0.06
37430 H 51.28822738471021 15.259218186785944 115.17269597523347 H 0.0 **** 0.06
37431 C 20.467517888035246 36.370161071317256 93.23940866990762 C 0.0 **** -0.24
37432 H 19.89380258031582 35.947240179597344 92.4144349377298 H 0.0 **** 0.06
37433 H 20.306520372136504 35.77143644715392 94.1369339878851 H 0.0 **** 0.06
37434 H 20.140453000054094 37.39390798782608 93.42161948919244 H 0.0 **** 0.06
37435 H 21.526296837009255 36.36598141189177 92.98381615893953 H 0.0 **** 0.06
37436 C 59.97939652819543 98.24242185600667 67.11491377237016 C 0.0 **** -0.24
37437 H 58.95387438695506 98.49491903588594 67.3849591261006 H 0.0 **** 0.06
37438 H 60.597408995005416 99.1397971300909 67.15605038272574 H 0.0 **** 0.06
37439 H 59.99854522776973 97.8338849945807 66.10398301705243 H 0.0 **** 0.06
37440 H 60.367670915562094 97.50160719229356 67.8138133322928 H 0.0 **** 0.06
37441 C 7.9997217011227235 11.529787004417955 15.183960173082294 C 0.0 **** -0.24
37442 H 7.016014866482038 11.94524503121869 14.96661845360639 H 0.0 **** 0.06
37443 H 8.686820275976856 11.779850978375322 14.37460572980729 H 0.0 **** 0.06
37444 H 7.923358065688362 10.445969468634274 15.274718896928135 H 0.0 **** 0.06
37445 H 8.372310927668963 11.947186406755833 16.11967273659654 H 0.0 **** 0.06
37446 C 59.366578557810406 7.902446760397851 26.171982263662528 C 0.0 **** -0.24
37447 H 59.36096073443432 6.970570651999424 25.605483017310974 H 0.0 **** 0.06
37448 H 59.37359270052766 7.6792351138178105 27.238331766592466 H 0.0 **** 0.06
37449 H 58.47542400555799 8.481472636788055 25.92698095317155 H 0.0 **** 0.06
37450 H 60.255453216830496 8.477738470588804 25.91437167671006 H 0.0 **** 0.06
37451 C 104.92305813050675 76.75618419937743 27.780287277490757 C 0.0 **** -0.24
37452 H 104.7597999879072 75.98591889024544 27.027149146674795 H 0.0 **** 0.06
37453 H 105.04993017020911 76.28784417393948 28.75713484102524 H 0.0 **** 0.06
37454 H 104.06454103633695 77.42618388202555 27.80687121421149 H 0.0 **** 0.06
37455 H 105.8199845122356 77.32414677544904 27.530696380489424 H 0.0 **** 0.06
37456 C 32.2286221030472 47.37887780776924 48.627308624842414 C 0.0 **** -0.24
37457 H 31.607113810923266 47.935004812509504 49.3293194354182 H 0.0 **** 0.06
37458 H 33.072149781182986 47.99704082760721 48.32042348780416 H 0.0 **** 0.06
37459 H 31.636103765031578 47.11122325748903 47.75221660147935 H 0.0 **** 0.06
37460 H 32.59724233996698 46.47314522975 49.1080846030963 H 0.0 **** 0.06
37461 C 77.10786296253298 7.164358824058112 29.277427438524505 C 0.0 **** -0.24
37462 H 76.76900939074935 6.190248019452028 29.63027353668509 H 0.0 **** 0.06
37463 H 76.25094702391038 7.828942658421369 29.169009981686564 H 0.0 **** 0.06
37464 H 77.60508687537796 7.049745470890855 28.314582650164546 H 0.0 **** 0.06
37465 H 77.80681858325565 7.588206304940471 29.999413862709574 H 0.0 **** 0.06
37466 C 80.65177490390397 65.43611251507016 84.49260507236039 C 0.0 **** -0.24
37467 H 80.77877292061069 64.93290751956653 85.45149674664114 H 0.0 **** 0.06
37468 H 80.01385683655624 64.83137547565076 83.84805125970885 H 0.0 **** 0.06
37469 H 81.6246065617531 65.56984412325798 84.02111880570678 H 0.0 **** 0.06
37470 H 80.1884093641109 66.40963574963124 84.65247642201376 H 0.0 **** 0.06
37471 C 32.669229739929165 41.83956790437088 58.08564257227468 C 0.0 **** -0.24
37472 H 33.02531154569806 41.09149118556158 57.377590374165806 H 0.0 **** 0.06
37473 H 32.30319715017686 42.70960207700051 57.54143710673961 H 0.0 **** 0.06
37474 H 33.48677719305965 42.13771648765038 58.74151337598519 H 0.0 **** 0.06
37475 H 31.860765470809497 41.41728824706405 58.68275261529925 H 0.0 **** 0.06
37476 C 69.72159886819296 101.76806229621602 4.253485274419086 C 0.0 **** -0.24
37477 H 70.5680990280419 102.00518303133549 3.609530955636986 H 0.0 **** 0.06
37478 H 69.35293742216874 100.76892667358351 4.016127208348697 H 0.0 **** 0.06
37479 H 68.92688208280885 102.4966757034702 4.091977614242657 H 0.0 **** 0.06
37480 H 70.0372496256673 101.80062298611821 5.29541821975663 H 0.0 **** 0.06
37481 C 105.2922392272632 44.440742917758854 81.68339620728293 C 0.0 **** -0.24
37482 H 106.09176742422113 45.13008981308343 81.41253560019788 H 0.0 **** 0.06
37483 H 105.66880850120629 43.71293560195841 82.40245606885989 H 0.0 **** 0.06
37484 H 104.94179982694064 43.92376693100661 80.79051605019663 H 0.0 **** 0.06
37485 H 104.46825454720826 44.998820006038585 82.12855371059217 H 0.0 **** 0.06
37486 C 46.474801214672496 43.912353987238134 61.214870091206365 C 0.0 **** -0.24
37487 H 46.75252183900926 44.79468505918615 60.6386261534027 H 0.0 **** 0.06
37488 H 47.17282623857278 43.10275518645604 60.998301627518174 H 0.0 **** 0.06
37489 H 45.465596990655285 43.60439093356325 60.94402608603872 H 0.0 **** 0.06
37490 H 46.50938021529127 44.148398709369474 62.278813319364644 H 0.0 **** 0.06
37491 C 104.49210916080972 40.97702864282837 49.4216132513435 C 0.0 **** -0.24
37492 H 104.55501132473049 40.46776488976582 48.459916460972494 H 0.0 **** 0.06
37493 H 103.9522518888771 41.916368526947 49.30059385805984 H 0.0 **** 0.06
37494 H 105.4981710690758 41.180565276743266 49.79067197125292 H 0.0 **** 0.06
37495 H 103.96536861194534 40.34325843848359 50.134657187987955 H 0.0 **** 0.06
37496 C 62.531039644661895 40.53490722913158 93.02557950020173 C 0.0 **** -0.24
37497 H 61.816287353730665 40.099525378451524 92.32726884593487 H 0.0 **** 0.06
37498 H 62.01536685821875 40.817641410569536 93.94322971447284 H 0.0 **** 0.06
37499 H 62.98415352715883 41.41889399891098 92.57623642677976 H 0.0 **** 0.06
37500 H 63.30679336479867 39.80490559098808 93.25424666969724 H 0.0 **** 0.06
@<TRIPOS>BOND
1 1 2 28
2 1 3 28
3 1 4 28
4 1 5 28
5 6 7 28
6 6 8 28
7 6 9 28
8 6 10 28
9 11 12 28
10 11 13 28
11 11 14 28
12 11 15 28
13 16 17 28
14 16 18 28
15 16 19 28
16 16 20 28
17 21 22 28
18 21 23 28
19 21 24 28
20 21 25 28
21 26 27 28
22 26 28 28
23 26 29 28
24 26 30 28
25 31 32 28
26 31 33 28
27 31 34 28
28 31 35 28
29 36 37 28
30 36 38 28
31 36 39 28
32 36 40 28
33 41 42 28
34 41 43 28
35 41 44 28
36 41 45 28
37 46 47 28
38 46 48 28
39 46 49 28
40 46 50 28
41 51 52 28
42 51 53 28
43 51 54 28
44 51 55 28
45 56 57 28
46 56 58 28
47 56 59 28
48 56 60 28
49 61 62 28
50 61 63 28
51 61 64 28
52 61 65 28
53 66 67 28
54 66 68 28
55 66 69 28
56 66 70 28
57 71 72 28
58 71 73 28
59 71 74 28
60 71 75 28
61 76 77 28
62 76 78 28
63 76 79 28
64 76 80 28
65 81 82 28
66 81 83 28
67 81 84 28
68 81 85 28
69 86 87 28
70 86 88 28
71 86 89 28
72 86 90 28
73 91 92 28
74 91 93 28
75 91 94 28
76 91 95 28
77 96 97 28
78 96 98 28
79 96 99 28
80 96 100 28
81 101 102 28
82 101 103 28
83 101 104 28
84 101 105 28
85 106 107 28
86 106 108 28
87 106 109 28
88 106 110 28
89 111 112 28
90 111 113 28
91 111 114 28
92 111 115 28
93 116 117 28
94 116 118 28
95 116 119 28
96 116 120 28
97 121 122 28
98 121 123 28
99 121 124 28
100 121 125 28
101 126 127 28
102 126 128 28
103 126 129 28
104 126 130 28
105 131 132 28
106 131 133 28
107 131 134 28
108 131 135 28
109 136 137 28
110 136 138 28
111 136 139 28
112 136 140 28
113 141 142 28
114 141 143 28
115 141 144 28
116 141 145 28
117 146 147 28
118 146 148 28
119 146 149 28
120 146 150 28
121 151 152 28
122 151 153 28
123 151 154 28
124 151 155 28
125 156 157 28
126 156 158 28
127 156 159 28
128 156 160 28
129 161 162 28
130 161 163 28
131 161 164 28
132 161 165 28
133 166 167 28
134 166 168 28
135 166 169 28
136 166 170 28
137 171 172 28
138 171 173 28
139 171 174 28
140 171 175 28
141 176 177 28
142 176 178 28
143 176 179 28
144 176 180 28
145 181 182 28
146 181 183 28
147 181 184 28
148 181 185 28
149 186 187 28
150 186 188 28
151 186 189 28
152 186 190 28
153 191 192 28
154 191 193 28
155 191 194 28
156 191 195 28
157 196 197 28
158 196 198 28
159 196 199 28
160 196 200 28
161 201 202 28
162 201 203 28
163 201 204 28
164 201 205 28
165 206 207 28
166 206 208 28
167 206 209 28
168 206 210 28
169 211 212 28
170 211 213 28
171 211 214 28
172 211 215 28
173 216 217 28
174 216 218 28
175 216 219 28
176 216 220 28
177 221 222 28
178 221 223 28
179 221 224 28
180 221 225 28
181 226 227 28
182 226 228 28
183 226 229 28
184 226 230 28
185 231 232 28
186 231 233 28
187 231 234 28
188 231 235 28
189 236 237 28
190 236 238 28
191 236 239 28
192 236 240 28
193 241 242 28
194 241 243 28
195 241 244 28
196 241 245 28
197 246 247 28
198 246 248 28
199 246 249 28
200 246 250 28
201 251 252 28
202 251 253 28
203 251 254 28
204 251 255 28
205 256 257 28
206 256 258 28
207 256 259 28
208 256 260 28
209 261 262 28
210 261 263 28
211 261 264 28
212 261 265 28
213 266 267 28
214 266 268 28
215 266 269 28
216 266 270 28
217 271 272 28
218 271 273 28
219 271 274 28
220 271 275 28
221 276 277 28
222 276 278 28
223 276 279 28
224 276 280 28
225 281 282 28
226 281 283 28
227 281 284 28
228 281 285 28
229 286 287 28
230 286 288 28
231 286 289 28
232 286 290 28
233 291 292 28
234 291 293 28
235 291 294 28
236 291 295 28
237 296 297 28
238 296 298 28
239 296 299 28
240 296 300 28
241 301 302 28
242 301 303 28
243 301 304 28
244 301 305 28
245 306 307 28
246 306 308 28
247 306 309 28
248 306 310 28
249 311 312 28
250 311 313 28
251 311 314 28
252 311 315 28
253 316 317 28
254 316 318 28
255 316 319 28
256 316 320 28
257 321 322 28
258 321 323 28
259 321 324 28
260 321 325 28
261 326 327 28
262 326 328 28
263 326 329 28
264 326 330 28
265 331 332 28
266 331 333 28
267 331 334 28
268 331 335 28
269 336 337 28
270 336 338 28
271 336 339 28
272 336 340 28
273 341 342 28
274 341 343 28
275 341 344 28
276 341 345 28
277 346 347 28
278 346 348 28
279 346 349 28
280 346 350 28
281 351 352 28
282 351 353 28
283 351 354 28
284 351 355 28
285 356 357 28
286 356 358 28
287 356 359 28
288 356 360 28
289 361 362 28
290 361 363 28
291 361 364 28
292 361 365 28
293 366 367 28
294 366 368 28
295 366 369 28
296 366 370 28
297 371 372 28
298 371 373 28
299 371 374 28
300 371 375 28
301 376 377 28
302 376 378 28
303 376 379 28
304 376 380 28
305 381 382 28
306 381 383 28
307 381 384 28
308 381 385 28
309 386 387 28
310 386 388 28
311 386 389 28
312 386 390 28
313 391 392 28
314 391 393 28
315 391 394 28
316 391 395 28
317 396 397 28
318 396 398 28
319 396 399 28
320 396 400 28
321 401 402 28
322 401 403 28
323 401 404 28
324 401 405 28
325 406 407 28
326 406 408 28
327 406 409 28
328 406 410 28
329 411 412 28
330 411 413 28
331 411 414 28
332 411 415 28
333 416 417 28
334 416 418 28
335 416 419 28
336 416 420 28
337 421 422 28
338 421 423 28
339 421 424 28
340 421 425 28
341 426 427 28
342 426 428 28
343 426 429 28
344 426 430 28
345 431 432 28
346 431 433 28
347 431 434 28
348 431 435 28
349 436 437 28
350 436 438 28
351 436 439 28
352 436 440 28
353 441 442 28
354 441 443 28
355 441 444 28
356 441 445 28
357 446 447 28
358 446 448 28
359 446 449 28
360 446 450 28
361 451 452 28
362 451 453 28
363 451 454 28
364 451 455 28
365 456 457 28
366 456 458 28
367 456 459 28
368 456 460 28
369 461 462 28
370 461 463 28
371 461 464 28
372 461 465 28
373 466 467 28
374 466 468 28
375 466 469 28
376 466 470 28
377 471 472 28
378 471 473 28
379 471 474 28
380 471 475 28
381 476 477 28
382 476 478 28
383 476 479 28
384 476 480 28
385 481 482 28
386 481 483 28
387 481 484 28
388 481 485 28
389 486 487 28
390 486 488 28
391 486 489 28
392 486 490 28
393 491 492 28
394 491 493 28
395 491 494 28
396 491 495 28
397 496 497 28
398 496 498 28
399 496 499 28
400 496 500 28
401 501 502 28
402 501 503 28
403 501 504 28
404 501 505 28
405 506 507 28
406 506 508 28
407 506 509 28
408 506 510 28
409 511 512 28
410 511 513 28
411 511 514 28
412 511 515 28
413 516 517 28
414 516 518 28
415 516 519 28
416 516 520 28
417 521 522 28
418 521 523 28
419 521 524 28
420 521 525 28
421 526 527 28
422 526 528 28
423 526 529 28
424 526 530 28
425 531 532 28
426 531 533 28
427 531 534 28
428 531 535 28
429 536 537 28
430 536 538 28
431 536 539 28
432 536 540 28
433 541 542 28
434 541 543 28
435 541 544 28
436 541 545 28
437 546 547 28
438 546 548 28
439 546 549 28
440 546 550 28
441 551 552 28
442 551 553 28
443 551 554 28
444 551 555 28
445 556 557 28
446 556 558 28
447 556 559 28
448 556 560 28
449 561 562 28
450 561 563 28
451 561 564 28
452 561 565 28
453 566 567 28
454 566 568 28
455 566 569 28
456 566 570 28
457 571 572 28
458 571 573 28
459 571 574 28
460 571 575 28
461 576 577 28
462 576 578 28
463 576 579 28
464 576 580 28
465 581 582 28
466 581 583 28
467 581 584 28
468 581 585 28
469 586 587 28
470 586 588 28
471 586 589 28
472 586 590 28
473 591 592 28
474 591 593 28
475 591 594 28
476 591 595 28
477 596 597 28
478 596 598 28
479 596 599 28
480 596 600 28
481 601 602 28
482 601 603 28
483 601 604 28
484 601 605 28
485 606 607 28
486 606 608 28
487 606 609 28
488 606 610 28
489 611 612 28
490 611 613 28
491 611 614 28
492 611 615 28
493 616 617 28
494 616 618 28
495 616 619 28
496 616 620 28
497 621 622 28
498 621 623 28
499 621 624 28
500 621 625 28
501 626 627 28
502 626 628 28
503 626 629 28
504 626 630 28
505 631 632 28
506 631 633 28
507 631 634 28
508 631 635 28
509 636 637 28
510 636 638 28
511 636 639 28
512 636 640 28
513 641 642 28
514 641 643 28
515 641 644 28
516 641 645 28
517 646 647 28
518 646 648 28
519 646 649 28
520 646 650 28
521 651 652 28
522 651 653 28
523 651 654 28
524 651 655 28
525 656 657 28
526 656 658 28
527 656 659 28
528 656 660 28
529 661 662 28
530 661 663 28
531 661 664 28
532 661 665 28
533 666 667 28
534 666 668 28
535 666 669 28
536 666 670 28
537 671 672 28
538 671 673 28
539 671 674 28
540 671 675 28
541 676 677 28
542 676 678 28
543 676 679 28
544 676 680 28
545 681 682 28
546 681 683 28
547 681 684 28
548 681 685 28
549 686 687 28
550 686 688 28
551 686 689 28
552 686 690 28
553 691 692 28
554 691 693 28
555 691 694 28
556 691 695 28
557 696 697 28
558 696 698 28
559 696 699 28
560 696 700 28
561 701 702 28
562 701 703 28
563 701 704 28
564 701 705 28
565 706 707 28
566 706 708 28
567 706 709 28
568 706 710 28
569 711 712 28
570 711 713 28
571 711 714 28
572 711 715 28
573 716 717 28
574 716 718 28
575 716 719 28
576 716 720 28
577 721 722 28
578 721 723 28
579 721 724 28
580 721 725 28
581 726 727 28
582 726 728 28
583 726 729 28
584 726 730 28
585 731 732 28
586 731 733 28
587 731 734 28
588 731 735 28
589 736 737 28
590 736 738 28
591 736 739 28
592 736 740 28
593 741 742 28
594 741 743 28
595 741 744 28
596 741 745 28
597 746 747 28
598 746 748 28
599 746 749 28
600 746 750 28
601 751 752 28
602 751 753 28
603 751 754 28
604 751 755 28
605 756 757 28
606 756 758 28
607 756 759 28
608 756 760 28
609 761 762 28
610 761 763 28
611 761 764 28
612 761 765 28
613 766 767 28
614 766 768 28
615 766 769 28
616 766 770 28
617 771 772 28
618 771 773 28
619 771 774 28
620 771 775 28
621 776 777 28
622 776 778 28
623 776 779 28
624 776 780 28
625 781 782 28
626 781 783 28
627 781 784 28
628 781 785 28
629 786 787 28
630 786 788 28
631 786 789 28
632 786 790 28
633 791 792 28
634 791 793 28
635 791 794 28
636 791 795 28
637 796 797 28
638 796 798 28
639 796 799 28
640 796 800 28
641 801 802 28
642 801 803 28
643 801 804 28
644 801 805 28
645 806 807 28
646 806 808 28
647 806 809 28
648 806 810 28
649 811 812 28
650 811 813 28
651 811 814 28
652 811 815 28
653 816 817 28
654 816 818 28
655 816 819 28
656 816 820 28
657 821 822 28
658 821 823 28
659 821 824 28
660 821 825 28
661 826 827 28
662 826 828 28
663 826 829 28
664 826 830 28
665 831 832 28
666 831 833 28
667 831 834 28
668 831 835 28
669 836 837 28
670 836 838 28
671 836 839 28
672 836 840 28
673 841 842 28
674 841 843 28
675 841 844 28
676 841 845 28
677 846 847 28
678 846 848 28
679 846 849 28
680 846 850 28
681 851 852 28
682 851 853 28
683 851 854 28
684 851 855 28
685 856 857 28
686 856 858 28
687 856 859 28
688 856 860 28
689 861 862 28
690 861 863 28
691 861 864 28
692 861 865 28
693 866 867 28
694 866 868 28
695 866 869 28
696 866 870 28
697 871 872 28
698 871 873 28
699 871 874 28
700 871 875 28
701 876 877 28
702 876 878 28
703 876 879 28
704 876 880 28
705 881 882 28
706 881 883 28
707 881 884 28
708 881 885 28
709 886 887 28
710 886 888 28
711 886 889 28
712 886 890 28
713 891 892 28
714 891 893 28
715 891 894 28
716 891 895 28
717 896 897 28
718 896 898 28
719 896 899 28
720 896 900 28
721 901 902 28
722 901 903 28
723 901 904 28
724 901 905 28
725 906 907 28
726 906 908 28
727 906 909 28
728 906 910 28
729 911 912 28
730 911 913 28
731 911 914 28
732 911 915 28
733 916 917 28
734 916 918 28
735 916 919 28
736 916 920 28
737 921 922 28
738 921 923 28
739 921 924 28
740 921 925 28
741 926 927 28
742 926 928 28
743 926 929 28
744 926 930 28
745 931 932 28
746 931 933 28
747 931 934 28
748 931 935 28
749 936 937 28
750 936 938 28
751 936 939 28
752 936 940 28
753 941 942 28
754 941 943 28
755 941 944 28
756 941 945 28
757 946 947 28
758 946 948 28
759 946 949 28
760 946 950 28
761 951 952 28
762 951 953 28
763 951 954 28
764 951 955 28
765 956 957 28
766 956 958 28
767 956 959 28
768 956 960 28
769 961 962 28
770 961 963 28
771 961 964 28
772 961 965 28
773 966 967 28
774 966 968 28
775 966 969 28
776 966 970 28
777 971 972 28
778 971 973 28
779 971 974 28
780 971 975 28
781 976 977 28
782 976 978 28
783 976 979 28
784 976 980 28
785 981 982 28
786 981 983 28
787 981 984 28
788 981 985 28
789 986 987 28
790 986 988 28
791 986 989 28
792 986 990 28
793 991 992 28
794 991 993 28
795 991 994 28
796 991 995 28
797 996 997 28
798 996 998 28
799 996 999 28
800 996 1000 28
801 1001 1002 28
802 1001 1003 28
803 1001 1004 28
804 1001 1005 28
805 1006 1007 28
806 1006 1008 28
807 1006 1009 28
808 1006 1010 28
809 1011 1012 28
810 1011 1013 28
811 1011 1014 28
812 1011 1015 28
813 1016 1017 28
814 1016 1018 28
815 1016 1019 28
816 1016 1020 28
817 1021 1022 28
818 1021 1023 28
819 1021 1024 28
820 1021 1025 28
821 1026 1027 28
822 1026 1028 28
823 1026 1029 28
824 1026 1030 28
825 1031 1032 28
826 1031 1033 28
827 1031 1034 28
828 1031 1035 28
829 1036 1037 28
830 1036 1038 28
831 1036 1039 28
832 1036 1040 28
833 1041 1042 28
834 1041 1043 28
835 1041 1044 28
836 1041 1045 28
837 1046 1047 28
838 1046 1048 28
839 1046 1049 28
840 1046 1050 28
841 1051 1052 28
842 1051 1053 28
843 1051 1054 28
844 1051 1055 28
845 1056 1057 28
846 1056 1058 28
847 1056 1059 28
848 1056 1060 28
849 1061 1062 28
850 1061 1063 28
851 1061 1064 28
852 1061 1065 28
853 1066 1067 28
854 1066 1068 28
855 1066 1069 28
856 1066 1070 28
857 1071 1072 28
858 1071 1073 28
859 1071 1074 28
860 1071 1075 28
861 1076 1077 28
862 1076 1078 28
863 1076 1079 28
864 1076 1080 28
865 1081 1082 28
866 1081 1083 28
867 1081 1084 28
868 1081 1085 28
869 1086 1087 28
870 1086 1088 28
871 1086 1089 28
872 1086 1090 28
873 1091 1092 28
874 1091 1093 28
875 1091 1094 28
876 1091 1095 28
877 1096 1097 28
878 1096 1098 28
879 1096 1099 28
880 1096 1100 28
881 1101 1102 28
882 1101 1103 28
883 1101 1104 28
884 1101 1105 28
885 1106 1107 28
886 1106 1108 28
887 1106 1109 28
888 1106 1110 28
889 1111 1112 28
890 1111 1113 28
891 1111 1114 28
892 1111 1115 28
893 1116 1117 28
894 1116 1118 28
895 1116 1119 28
896 1116 1120 28
897 1121 1122 28
898 1121 1123 28
899 1121 1124 28
900 1121 1125 28
901 1126 1127 28
902 1126 1128 28
903 1126 1129 28
904 1126 1130 28
905 1131 1132 28
906 1131 1133 28
907 1131 1134 28
908 1131 1135 28
909 1136 1137 28
910 1136 1138 28
911 1136 1139 28
912 1136 1140 28
913 1141 1142 28
914 1141 1143 28
915 1141 1144 28
916 1141 1145 28
917 1146 1147 28
918 1146 1148 28
919 1146 1149 28
920 1146 1150 28
921 1151 1152 28
922 1151 1153 28
923 1151 1154 28
924 1151 1155 28
925 1156 1157 28
926 1156 1158 28
927 1156 1159 28
928 1156 1160 28
929 1161 1162 28
930 1161 1163 28
931 1161 1164 28
932 1161 1165 28
933 1166 1167 28
934 1166 1168 28
935 1166 1169 28
936 1166 1170 28
937 1171 1172 28
938 1171 1173 28
939 1171 1174 28
940 1171 1175 28
941 1176 1177 28
942 1176 1178 28
943 1176 1179 28
944 1176 1180 28
945 1181 1182 28
946 1181 1183 28
947 1181 1184 28
948 1181 1185 28
949 1186 1187 28
950 1186 1188 28
951 1186 1189 28
952 1186 1190 28
953 1191 1192 28
954 1191 1193 28
955 1191 1194 28
956 1191 1195 28
957 1196 1197 28
958 1196 1198 28
959 1196 1199 28
960 1196 1200 28
961 1201 1202 28
962 1201 1203 28
963 1201 1204 28
964 1201 1205 28
965 1206 1207 28
966 1206 1208 28
967 1206 1209 28
968 1206 1210 28
969 1211 1212 28
970 1211 1213 28
971 1211 1214 28
972 1211 1215 28
973 1216 1217 28
974 1216 1218 28
975 1216 1219 28
976 1216 1220 28
977 1221 1222 28
978 1221 1223 28
979 1221 1224 28
980 1221 1225 28
981 1226 1227 28
982 1226 1228 28
983 1226 1229 28
984 1226 1230 28
985 1231 1232 28
986 1231 1233 28
987 1231 1234 28
988 1231 1235 28
989 1236 1237 28
990 1236 1238 28
991 1236 1239 28
992 1236 1240 28
993 1241 1242 28
994 1241 1243 28
995 1241 1244 28
996 1241 1245 28
997 1246 1247 28
998 1246 1248 28
999 1246 1249 28
1000 1246 1250 28
1001 1251 1252 28
1002 1251 1253 28
1003 1251 1254 28
1004 1251 1255 28
1005 1256 1257 28
1006 1256 1258 28
1007 1256 1259 28
1008 1256 1260 28
1009 1261 1262 28
1010 1261 1263 28
1011 1261 1264 28
1012 1261 1265 28
1013 1266 1267 28
1014 1266 1268 28
1015 1266 1269 28
1016 1266 1270 28
1017 1271 1272 28
1018 1271 1273 28
1019 1271 1274 28
1020 1271 1275 28
1021 1276 1277 28
1022 1276 1278 28
1023 1276 1279 28
1024 1276 1280 28
1025 1281 1282 28
1026 1281 1283 28
1027 1281 1284 28
1028 1281 1285 28
1029 1286 1287 28
1030 1286 1288 28
1031 1286 1289 28
1032 1286 1290 28
1033 1291 1292 28
1034 1291 1293 28
1035 1291 1294 28
1036 1291 1295 28
1037 1296 1297 28
1038 1296 1298 28
1039 1296 1299 28
1040 1296 1300 28
1041 1301 1302 28
1042 1301 1303 28
1043 1301 1304 28
1044 1301 1305 28
1045 1306 1307 28
1046 1306 1308 28
1047 1306 1309 28
1048 1306 1310 28
1049 1311 1312 28
1050 1311 1313 28
1051 1311 1314 28
1052 1311 1315 28
1053 1316 1317 28
1054 1316 1318 28
1055 1316 1319 28
1056 1316 1320 28
1057 1321 1322 28
1058 1321 1323 28
1059 1321 1324 28
1060 1321 1325 28
1061 1326 1327 28
1062 1326 1328 28
1063 1326 1329 28
1064 1326 1330 28
1065 1331 1332 28
1066 1331 1333 28
1067 1331 1334 28
1068 1331 1335 28
1069 1336 1337 28
1070 1336 1338 28
1071 1336 1339 28
1072 1336 1340 28
1073 1341 1342 28
1074 1341 1343 28
1075 1341 1344 28
1076 1341 1345 28
1077 1346 1347 28
1078 1346 1348 28
1079 1346 1349 28
1080 1346 1350 28
1081 1351 1352 28
1082 1351 1353 28
1083 1351 1354 28
1084 1351 1355 28
1085 1356 1357 28
1086 1356 1358 28
1087 1356 1359 28
1088 1356 1360 28
1089 1361 1362 28
1090 1361 1363 28
1091 1361 1364 28
1092 1361 1365 28
1093 1366 1367 28
1094 1366 1368 28
1095 1366 1369 28
1096 1366 1370 28
1097 1371 1372 28
1098 1371 1373 28
1099 1371 1374 28
1100 1371 1375 28
1101 1376 1377 28
1102 1376 1378 28
1103 1376 1379 28
1104 1376 1380 28
1105 1381 1382 28
1106 1381 1383 28
1107 1381 1384 28
1108 1381 1385 28
1109 1386 1387 28
1110 1386 1388 28
1111 1386 1389 28
1112 1386 1390 28
1113 1391 1392 28
1114 1391 1393 28
1115 1391 1394 28
1116 1391 1395 28
1117 1396 1397 28
1118 1396 1398 28
1119 1396 1399 28
1120 1396 1400 28
1121 1401 1402 28
1122 1401 1403 28
1123 1401 1404 28
1124 1401 1405 28
1125 1406 1407 28
1126 1406 1408 28
1127 1406 1409 28
1128 1406 1410 28
1129 1411 1412 28
1130 1411 1413 28
1131 1411 1414 28
1132 1411 1415 28
1133 1416 1417 28
1134 1416 1418 28
1135 1416 1419 28
1136 1416 1420 28
1137 1421 1422 28
1138 1421 1423 28
1139 1421 1424 28
1140 1421 1425 28
1141 1426 1427 28
1142 1426 1428 28
1143 1426 1429 28
1144 1426 1430 28
1145 1431 1432 28
1146 1431 1433 28
1147 1431 1434 28
1148 1431 1435 28
1149 1436 1437 28
1150 1436 1438 28
1151 1436 1439 28
1152 1436 1440 28
1153 1441 1442 28
1154 1441 1443 28
1155 1441 1444 28
1156 1441 1445 28
1157 1446 1447 28
1158 1446 1448 28
1159 1446 1449 28
1160 1446 1450 28
1161 1451 1452 28
1162 1451 1453 28
1163 1451 1454 28
1164 1451 1455 28
1165 1456 1457 28
1166 1456 1458 28
1167 1456 1459 28
1168 1456 1460 28
1169 1461 1462 28
1170 1461 1463 28
1171 1461 1464 28
1172 1461 1465 28
1173 1466 1467 28
1174 1466 1468 28
1175 1466 1469 28
1176 1466 1470 28
1177 1471 1472 28
1178 1471 1473 28
1179 1471 1474 28
1180 1471 1475 28
1181 1476 1477 28
1182 1476 1478 28
1183 1476 1479 28
1184 1476 1480 28
1185 1481 1482 28
1186 1481 1483 28
1187 1481 1484 28
1188 1481 1485 28
1189 1486 1487 28
1190 1486 1488 28
1191 1486 1489 28
1192 1486 1490 28
1193 1491 1492 28
1194 1491 1493 28
1195 1491 1494 28
1196 1491 1495 28
1197 1496 1497 28
1198 1496 1498 28
1199 1496 1499 28
1200 1496 1500 28
1201 1501 1502 28
1202 1501 1503 28
1203 1501 1504 28
1204 1501 1505 28
1205 1506 1507 28
1206 1506 1508 28
1207 1506 1509 28
1208 1506 1510 28
1209 1511 1512 28
1210 1511 1513 28
1211 1511 1514 28
1212 1511 1515 28
1213 1516 1517 28
1214 1516 1518 28
1215 1516 1519 28
1216 1516 1520 28
1217 1521 1522 28
1218 1521 1523 28
1219 1521 1524 28
1220 1521 1525 28
1221 1526 1527 28
1222 1526 1528 28
1223 1526 1529 28
1224 1526 1530 28
1225 1531 1532 28
1226 1531 1533 28
1227 1531 1534 28
1228 1531 1535 28
1229 1536 1537 28
1230 1536 1538 28
1231 1536 1539 28
1232 1536 1540 28
1233 1541 1542 28
1234 1541 1543 28
1235 1541 1544 28
1236 1541 1545 28
1237 1546 1547 28
1238 1546 1548 28
1239 1546 1549 28
1240 1546 1550 28
1241 1551 1552 28
1242 1551 1553 28
1243 1551 1554 28
1244 1551 1555 28
1245 1556 1557 28
1246 1556 1558 28
1247 1556 1559 28
1248 1556 1560 28
1249 1561 1562 28
1250 1561 1563 28
1251 1561 1564 28
1252 1561 1565 28
1253 1566 1567 28
1254 1566 1568 28
1255 1566 1569 28
1256 1566 1570 28
1257 1571 1572 28
1258 1571 1573 28
1259 1571 1574 28
1260 1571 1575 28
1261 1576 1577 28
1262 1576 1578 28
1263 1576 1579 28
1264 1576 1580 28
1265 1581 1582 28
1266 1581 1583 28
1267 1581 1584 28
1268 1581 1585 28
1269 1586 1587 28
1270 1586 1588 28
1271 1586 1589 28
1272 1586 1590 28
1273 1591 1592 28
1274 1591 1593 28
1275 1591 1594 28
1276 1591 1595 28
1277 1596 1597 28
1278 1596 1598 28
1279 1596 1599 28
1280 1596 1600 28
1281 1601 1602 28
1282 1601 1603 28
1283 1601 1604 28
1284 1601 1605 28
1285 1606 1607 28
1286 1606 1608 28
1287 1606 1609 28
1288 1606 1610 28
1289 1611 1612 28
1290 1611 1613 28
1291 1611 1614 28
1292 1611 1615 28
1293 1616 1617 28
1294 1616 1618 28
1295 1616 1619 28
1296 1616 1620 28
1297 1621 1622 28
1298 1621 1623 28
1299 1621 1624 28
1300 1621 1625 28
1301 1626 1627 28
1302 1626 1628 28
1303 1626 1629 28
1304 1626 1630 28
1305 1631 1632 28
1306 1631 1633 28
1307 1631 1634 28
1308 1631 1635 28
1309 1636 1637 28
1310 1636 1638 28
1311 1636 1639 28
1312 1636 1640 28
1313 1641 1642 28
1314 1641 1643 28
1315 1641 1644 28
1316 1641 1645 28
1317 1646 1647 28
1318 1646 1648 28
1319 1646 1649 28
1320 1646 1650 28
1321 1651 1652 28
1322 1651 1653 28
1323 1651 1654 28
1324 1651 1655 28
1325 1656 1657 28
1326 1656 1658 28
1327 1656 1659 28
1328 1656 1660 28
1329 1661 1662 28
1330 1661 1663 28
1331 1661 1664 28
1332 1661 1665 28
1333 1666 1667 28
1334 1666 1668 28
1335 1666 1669 28
1336 1666 1670 28
1337 1671 1672 28
1338 1671 1673 28
1339 1671 1674 28
1340 1671 1675 28
1341 1676 1677 28
1342 1676 1678 28
1343 1676 1679 28
1344 1676 1680 28
1345 1681 1682 28
1346 1681 1683 28
1347 1681 1684 28
1348 1681 1685 28
1349 1686 1687 28
1350 1686 1688 28
1351 1686 1689 28
1352 1686 1690 28
1353 1691 1692 28
1354 1691 1693 28
1355 1691 1694 28
1356 1691 1695 28
1357 1696 1697 28
1358 1696 1698 28
1359 1696 1699 28
1360 1696 1700 28
1361 1701 1702 28
1362 1701 1703 28
1363 1701 1704 28
1364 1701 1705 28
1365 1706 1707 28
1366 1706 1708 28
1367 1706 1709 28
1368 1706 1710 28
1369 1711 1712 28
1370 1711 1713 28
1371 1711 1714 28
1372 1711 1715 28
1373 1716 1717 28
1374 1716 1718 28
1375 1716 1719 28
1376 1716 1720 28
1377 1721 1722 28
1378 1721 1723 28
1379 1721 1724 28
1380 1721 1725 28
1381 1726 1727 28
1382 1726 1728 28
1383 1726 1729 28
1384 1726 1730 28
1385 1731 1732 28
1386 1731 1733 28
1387 1731 1734 28
1388 1731 1735 28
1389 1736 1737 28
1390 1736 1738 28
1391 1736 1739 28
1392 1736 1740 28
1393 1741 1742 28
1394 1741 1743 28
1395 1741 1744 28
1396 1741 1745 28
1397 1746 1747 28
1398 1746 1748 28
1399 1746 1749 28
1400 1746 1750 28
1401 1751 1752 28
1402 1751 1753 28
1403 1751 1754 28
1404 1751 1755 28
1405 1756 1757 28
1406 1756 1758 28
1407 1756 1759 28
1408 1756 1760 28
1409 1761 1762 28
1410 1761 1763 28
1411 1761 1764 28
1412 1761 1765 28
1413 1766 1767 28
1414 1766 1768 28
1415 1766 1769 28
1416 1766 1770 28
1417 1771 1772 28
1418 1771 1773 28
1419 1771 1774 28
1420 1771 1775 28
1421 1776 1777 28
1422 1776 1778 28
1423 1776 1779 28
1424 1776 1780 28
1425 1781 1782 28
1426 1781 1783 28
1427 1781 1784 28
1428 1781 1785 28
1429 1786 1787 28
1430 1786 1788 28
1431 1786 1789 28
1432 1786 1790 28
1433 1791 1792 28
1434 1791 1793 28
1435 1791 1794 28
1436 1791 1795 28
1437 1796 1797 28
1438 1796 1798 28
1439 1796 1799 28
1440 1796 1800 28
1441 1801 1802 28
1442 1801 1803 28
1443 1801 1804 28
1444 1801 1805 28
1445 1806 1807 28
1446 1806 1808 28
1447 1806 1809 28
1448 1806 1810 28
1449 1811 1812 28
1450 1811 1813 28
1451 1811 1814 28
1452 1811 1815 28
1453 1816 1817 28
1454 1816 1818 28
1455 1816 1819 28
1456 1816 1820 28
1457 1821 1822 28
1458 1821 1823 28
1459 1821 1824 28
1460 1821 1825 28
1461 1826 1827 28
1462 1826 1828 28
1463 1826 1829 28
1464 1826 1830 28
1465 1831 1832 28
1466 1831 1833 28
1467 1831 1834 28
1468 1831 1835 28
1469 1836 1837 28
1470 1836 1838 28
1471 1836 1839 28
1472 1836 1840 28
1473 1841 1842 28
1474 1841 1843 28
1475 1841 1844 28
1476 1841 1845 28
1477 1846 1847 28
1478 1846 1848 28
1479 1846 1849 28
1480 1846 1850 28
1481 1851 1852 28
1482 1851 1853 28
1483 1851 1854 28
1484 1851 1855 28
1485 1856 1857 28
1486 1856 1858 28
1487 1856 1859 28
1488 1856 1860 28
1489 1861 1862 28
1490 1861 1863 28
1491 1861 1864 28
1492 1861 1865 28
1493 1866 1867 28
1494 1866 1868 28
1495 1866 1869 28
1496 1866 1870 28
1497 1871 1872 28
1498 1871 1873 28
1499 1871 1874 28
1500 1871 1875 28
1501 1876 1877 28
1502 1876 1878 28
1503 1876 1879 28
1504 1876 1880 28
1505 1881 1882 28
1506 1881 1883 28
1507 1881 1884 28
1508 1881 1885 28
1509 1886 1887 28
1510 1886 1888 28
1511 1886 1889 28
1512 1886 1890 28
1513 1891 1892 28
1514 1891 1893 28
1515 1891 1894 28
1516 1891 1895 28
1517 1896 1897 28
1518 1896 1898 28
1519 1896 1899 28
1520 1896 1900 28
1521 1901 1902 28
1522 1901 1903 28
1523 1901 1904 28
1524 1901 1905 28
1525 1906 1907 28
1526 1906 1908 28
1527 1906 1909 28
1528 1906 1910 28
1529 1911 1912 28
1530 1911 1913 28
1531 1911 1914 28
1532 1911 1915 28
1533 1916 1917 28
1534 1916 1918 28
1535 1916 1919 28
1536 1916 1920 28
1537 1921 1922 28
1538 1921 1923 28
1539 1921 1924 28
1540 1921 1925 28
1541 1926 1927 28
1542 1926 1928 28
1543 1926 1929 28
1544 1926 1930 28
1545 1931 1932 28
1546 1931 1933 28
1547 1931 1934 28
1548 1931 1935 28
1549 1936 1937 28
1550 1936 1938 28
1551 1936 1939 28
1552 1936 1940 28
1553 1941 1942 28
1554 1941 1943 28
1555 1941 1944 28
1556 1941 1945 28
1557 1946 1947 28
1558 1946 1948 28
1559 1946 1949 28
1560 1946 1950 28
1561 1951 1952 28
1562 1951 1953 28
1563 1951 1954 28
1564 1951 1955 28
1565 1956 1957 28
1566 1956 1958 28
1567 1956 1959 28
1568 1956 1960 28
1569 1961 1962 28
1570 1961 1963 28
1571 1961 1964 28
1572 1961 1965 28
1573 1966 1967 28
1574 1966 1968 28
1575 1966 1969 28
1576 1966 1970 28
1577 1971 1972 28
1578 1971 1973 28
1579 1971 1974 28
1580 1971 1975 28
1581 1976 1977 28
1582 1976 1978 28
1583 1976 1979 28
1584 1976 1980 28
1585 1981 1982 28
1586 1981 1983 28
1587 1981 1984 28
1588 1981 1985 28
1589 1986 1987 28
1590 1986 1988 28
1591 1986 1989 28
1592 1986 1990 28
1593 1991 1992 28
1594 1991 1993 28
1595 1991 1994 28
1596 1991 1995 28
1597 1996 1997 28
1598 1996 1998 28
1599 1996 1999 28
1600 1996 2000 28
1601 2001 2002 28
1602 2001 2003 28
1603 2001 2004 28
1604 2001 2005 28
1605 2006 2007 28
1606 2006 2008 28
1607 2006 2009 28
1608 2006 2010 28
1609 2011 2012 28
1610 2011 2013 28
1611 2011 2014 28
1612 2011 2015 28
1613 2016 2017 28
1614 2016 2018 28
1615 2016 2019 28
1616 2016 2020 28
1617 2021 2022 28
1618 2021 2023 28
1619 2021 2024 28
1620 2021 2025 28
1621 2026 2027 28
1622 2026 2028 28
1623 2026 2029 28
1624 2026 2030 28
1625 2031 2032 28
1626 2031 2033 28
1627 2031 2034 28
1628 2031 2035 28
1629 2036 2037 28
1630 2036 2038 28
1631 2036 2039 28
1632 2036 2040 28
1633 2041 2042 28
1634 2041 2043 28
1635 2041 2044 28
1636 2041 2045 28
1637 2046 2047 28
1638 2046 2048 28
1639 2046 2049 28
1640 2046 2050 28
1641 2051 2052 28
1642 2051 2053 28
1643 2051 2054 28
1644 2051 2055 28
1645 2056 2057 28
1646 2056 2058 28
1647 2056 2059 28
1648 2056 2060 28
1649 2061 2062 28
1650 2061 2063 28
1651 2061 2064 28
1652 2061 2065 28
1653 2066 2067 28
1654 2066 2068 28
1655 2066 2069 28
1656 2066 2070 28
1657 2071 2072 28
1658 2071 2073 28
1659 2071 2074 28
1660 2071 2075 28
1661 2076 2077 28
1662 2076 2078 28
1663 2076 2079 28
1664 2076 2080 28
1665 2081 2082 28
1666 2081 2083 28
1667 2081 2084 28
1668 2081 2085 28
1669 2086 2087 28
1670 2086 2088 28
1671 2086 2089 28
1672 2086 2090 28
1673 2091 2092 28
1674 2091 2093 28
1675 2091 2094 28
1676 2091 2095 28
1677 2096 2097 28
1678 2096 2098 28
1679 2096 2099 28
1680 2096 2100 28
1681 2101 2102 28
1682 2101 2103 28
1683 2101 2104 28
1684 2101 2105 28
1685 2106 2107 28
1686 2106 2108 28
1687 2106 2109 28
1688 2106 2110 28
1689 2111 2112 28
1690 2111 2113 28
1691 2111 2114 28
1692 2111 2115 28
1693 2116 2117 28
1694 2116 2118 28
1695 2116 2119 28
1696 2116 2120 28
1697 2121 2122 28
1698 2121 2123 28
1699 2121 2124 28
1700 2121 2125 28
1701 2126 2127 28
1702 2126 2128 28
1703 2126 2129 28
1704 2126 2130 28
1705 2131 2132 28
1706 2131 2133 28
1707 2131 2134 28
1708 2131 2135 28
1709 2136 2137 28
1710 2136 2138 28
1711 2136 2139 28
1712 2136 2140 28
1713 2141 2142 28
1714 2141 2143 28
1715 2141 2144 28
1716 2141 2145 28
1717 2146 2147 28
1718 2146 2148 28
1719 2146 2149 28
1720 2146 2150 28
1721 2151 2152 28
1722 2151 2153 28
1723 2151 2154 28
1724 2151 2155 28
1725 2156 2157 28
1726 2156 2158 28
1727 2156 2159 28
1728 2156 2160 28
1729 2161 2162 28
1730 2161 2163 28
1731 2161 2164 28
1732 2161 2165 28
1733 2166 2167 28
1734 2166 2168 28
1735 2166 2169 28
1736 2166 2170 28
1737 2171 2172 28
1738 2171 2173 28
1739 2171 2174 28
1740 2171 2175 28
1741 2176 2177 28
1742 2176 2178 28
1743 2176 2179 28
1744 2176 2180 28
1745 2181 2182 28
1746 2181 2183 28
1747 2181 2184 28
1748 2181 2185 28
1749 2186 2187 28
1750 2186 2188 28
1751 2186 2189 28
1752 2186 2190 28
1753 2191 2192 28
1754 2191 2193 28
1755 2191 2194 28
1756 2191 2195 28
1757 2196 2197 28
1758 2196 2198 28
1759 2196 2199 28
1760 2196 2200 28
1761 2201 2202 28
1762 2201 2203 28
1763 2201 2204 28
1764 2201 2205 28
1765 2206 2207 28
1766 2206 2208 28
1767 2206 2209 28
1768 2206 2210 28
1769 2211 2212 28
1770 2211 2213 28
1771 2211 2214 28
1772 2211 2215 28
1773 2216 2217 28
1774 2216 2218 28
1775 2216 2219 28
1776 2216 2220 28
1777 2221 2222 28
1778 2221 2223 28
1779 2221 2224 28
1780 2221 2225 28
1781 2226 2227 28
1782 2226 2228 28
1783 2226 2229 28
1784 2226 2230 28
1785 2231 2232 28
1786 2231 2233 28
1787 2231 2234 28
1788 2231 2235 28
1789 2236 2237 28
1790 2236 2238 28
1791 2236 2239 28
1792 2236 2240 28
1793 2241 2242 28
1794 2241 2243 28
1795 2241 2244 28
1796 2241 2245 28
1797 2246 2247 28
1798 2246 2248 28
1799 2246 2249 28
1800 2246 2250 28
1801 2251 2252 28
1802 2251 2253 28
1803 2251 2254 28
1804 2251 2255 28
1805 2256 2257 28
1806 2256 2258 28
1807 2256 2259 28
1808 2256 2260 28
1809 2261 2262 28
1810 2261 2263 28
1811 2261 2264 28
1812 2261 2265 28
1813 2266 2267 28
1814 2266 2268 28
1815 2266 2269 28
1816 2266 2270 28
1817 2271 2272 28
1818 2271 2273 28
1819 2271 2274 28
1820 2271 2275 28
1821 2276 2277 28
1822 2276 2278 28
1823 2276 2279 28
1824 2276 2280 28
1825 2281 2282 28
1826 2281 2283 28
1827 2281 2284 28
1828 2281 2285 28
1829 2286 2287 28
1830 2286 2288 28
1831 2286 2289 28
1832 2286 2290 28
1833 2291 2292 28
1834 2291 2293 28
1835 2291 2294 28
1836 2291 2295 28
1837 2296 2297 28
1838 2296 2298 28
1839 2296 2299 28
1840 2296 2300 28
1841 2301 2302 28
1842 2301 2303 28
1843 2301 2304 28
1844 2301 2305 28
1845 2306 2307 28
1846 2306 2308 28
1847 2306 2309 28
1848 2306 2310 28
1849 2311 2312 28
1850 2311 2313 28
1851 2311 2314 28
1852 2311 2315 28
1853 2316 2317 28
1854 2316 2318 28
1855 2316 2319 28
1856 2316 2320 28
1857 2321 2322 28
1858 2321 2323 28
1859 2321 2324 28
1860 2321 2325 28
1861 2326 2327 28
1862 2326 2328 28
1863 2326 2329 28
1864 2326 2330 28
1865 2331 2332 28
1866 2331 2333 28
1867 2331 2334 28
1868 2331 2335 28
1869 2336 2337 28
1870 2336 2338 28
1871 2336 2339 28
1872 2336 2340 28
1873 2341 2342 28
1874 2341 2343 28
1875 2341 2344 28
1876 2341 2345 28
1877 2346 2347 28
1878 2346 2348 28
1879 2346 2349 28
1880 2346 2350 28
1881 2351 2352 28
1882 2351 2353 28
1883 2351 2354 28
1884 2351 2355 28
1885 2356 2357 28
1886 2356 2358 28
1887 2356 2359 28
1888 2356 2360 28
1889 2361 2362 28
1890 2361 2363 28
1891 2361 2364 28
1892 2361 2365 28
1893 2366 2367 28
1894 2366 2368 28
1895 2366 2369 28
1896 2366 2370 28
1897 2371 2372 28
1898 2371 2373 28
1899 2371 2374 28
1900 2371 2375 28
1901 2376 2377 28
1902 2376 2378 28
1903 2376 2379 28
1904 2376 2380 28
1905 2381 2382 28
1906 2381 2383 28
1907 2381 2384 28
1908 2381 2385 28
1909 2386 2387 28
1910 2386 2388 28
1911 2386 2389 28
1912 2386 2390 28
1913 2391 2392 28
1914 2391 2393 28
1915 2391 2394 28
1916 2391 2395 28
1917 2396 2397 28
1918 2396 2398 28
1919 2396 2399 28
1920 2396 2400 28
1921 2401 2402 28
1922 2401 2403 28
1923 2401 2404 28
1924 2401 2405 28
1925 2406 2407 28
1926 2406 2408 28
1927 2406 2409 28
1928 2406 2410 28
1929 2411 2412 28
1930 2411 2413 28
1931 2411 2414 28
1932 2411 2415 28
1933 2416 2417 28
1934 2416 2418 28
1935 2416 2419 28
1936 2416 2420 28
1937 2421 2422 28
1938 2421 2423 28
1939 2421 2424 28
1940 2421 2425 28
1941 2426 2427 28
1942 2426 2428 28
1943 2426 2429 28
1944 2426 2430 28
1945 2431 2432 28
1946 2431 2433 28
1947 2431 2434 28
1948 2431 2435 28
1949 2436 2437 28
1950 2436 2438 28
1951 2436 2439 28
1952 2436 2440 28
1953 2441 2442 28
1954 2441 2443 28
1955 2441 2444 28
1956 2441 2445 28
1957 2446 2447 28
1958 2446 2448 28
1959 2446 2449 28
1960 2446 2450 28
1961 2451 2452 28
1962 2451 2453 28
1963 2451 2454 28
1964 2451 2455 28
1965 2456 2457 28
1966 2456 2458 28
1967 2456 2459 28
1968 2456 2460 28
1969 2461 2462 28
1970 2461 2463 28
1971 2461 2464 28
1972 2461 2465 28
1973 2466 2467 28
1974 2466 2468 28
1975 2466 2469 28
1976 2466 2470 28
1977 2471 2472 28
1978 2471 2473 28
1979 2471 2474 28
1980 2471 2475 28
1981 2476 2477 28
1982 2476 2478 28
1983 2476 2479 28
1984 2476 2480 28
1985 2481 2482 28
1986 2481 2483 28
1987 2481 2484 28
1988 2481 2485 28
1989 2486 2487 28
1990 2486 2488 28
1991 2486 2489 28
1992 2486 2490 28
1993 2491 2492 28
1994 2491 2493 28
1995 2491 2494 28
1996 2491 2495 28
1997 2496 2497 28
1998 2496 2498 28
1999 2496 2499 28
2000 2496 2500 28
2001 2501 2502 28
2002 2501 2503 28
2003 2501 2504 28
2004 2501 2505 28
2005 2506 2507 28
2006 2506 2508 28
2007 2506 2509 28
2008 2506 2510 28
2009 2511 2512 28
2010 2511 2513 28
2011 2511 2514 28
2012 2511 2515 28
2013 2516 2517 28
2014 2516 2518 28
2015 2516 2519 28
2016 2516 2520 28
2017 2521 2522 28
2018 2521 2523 28
2019 2521 2524 28
2020 2521 2525 28
2021 2526 2527 28
2022 2526 2528 28
2023 2526 2529 28
2024 2526 2530 28
2025 2531 2532 28
2026 2531 2533 28
2027 2531 2534 28
2028 2531 2535 28
2029 2536 2537 28
2030 2536 2538 28
2031 2536 2539 28
2032 2536 2540 28
2033 2541 2542 28
2034 2541 2543 28
2035 2541 2544 28
2036 2541 2545 28
2037 2546 2547 28
2038 2546 2548 28
2039 2546 2549 28
2040 2546 2550 28
2041 2551 2552 28
2042 2551 2553 28
2043 2551 2554 28
2044 2551 2555 28
2045 2556 2557 28
2046 2556 2558 28
2047 2556 2559 28
2048 2556 2560 28
2049 2561 2562 28
2050 2561 2563 28
2051 2561 2564 28
2052 2561 2565 28
2053 2566 2567 28
2054 2566 2568 28
2055 2566 2569 28
2056 2566 2570 28
2057 2571 2572 28
2058 2571 2573 28
2059 2571 2574 28
2060 2571 2575 28
2061 2576 2577 28
2062 2576 2578 28
2063 2576 2579 28
2064 2576 2580 28
2065 2581 2582 28
2066 2581 2583 28
2067 2581 2584 28
2068 2581 2585 28
2069 2586 2587 28
2070 2586 2588 28
2071 2586 2589 28
2072 2586 2590 28
2073 2591 2592 28
2074 2591 2593 28
2075 2591 2594 28
2076 2591 2595 28
2077 2596 2597 28
2078 2596 2598 28
2079 2596 2599 28
2080 2596 2600 28
2081 2601 2602 28
2082 2601 2603 28
2083 2601 2604 28
2084 2601 2605 28
2085 2606 2607 28
2086 2606 2608 28
2087 2606 2609 28
2088 2606 2610 28
2089 2611 2612 28
2090 2611 2613 28
2091 2611 2614 28
2092 2611 2615 28
2093 2616 2617 28
2094 2616 2618 28
2095 2616 2619 28
2096 2616 2620 28
2097 2621 2622 28
2098 2621 2623 28
2099 2621 2624 28
2100 2621 2625 28
2101 2626 2627 28
2102 2626 2628 28
2103 2626 2629 28
2104 2626 2630 28
2105 2631 2632 28
2106 2631 2633 28
2107 2631 2634 28
2108 2631 2635 28
2109 2636 2637 28
2110 2636 2638 28
2111 2636 2639 28
2112 2636 2640 28
2113 2641 2642 28
2114 2641 2643 28
2115 2641 2644 28
2116 2641 2645 28
2117 2646 2647 28
2118 2646 2648 28
2119 2646 2649 28
2120 2646 2650 28
2121 2651 2652 28
2122 2651 2653 28
2123 2651 2654 28
2124 2651 2655 28
2125 2656 2657 28
2126 2656 2658 28
2127 2656 2659 28
2128 2656 2660 28
2129 2661 2662 28
2130 2661 2663 28
2131 2661 2664 28
2132 2661 2665 28
2133 2666 2667 28
2134 2666 2668 28
2135 2666 2669 28
2136 2666 2670 28
2137 2671 2672 28
2138 2671 2673 28
2139 2671 2674 28
2140 2671 2675 28
2141 2676 2677 28
2142 2676 2678 28
2143 2676 2679 28
2144 2676 2680 28
2145 2681 2682 28
2146 2681 2683 28
2147 2681 2684 28
2148 2681 2685 28
2149 2686 2687 28
2150 2686 2688 28
2151 2686 2689 28
2152 2686 2690 28
2153 2691 2692 28
2154 2691 2693 28
2155 2691 2694 28
2156 2691 2695 28
2157 2696 2697 28
2158 2696 2698 28
2159 2696 2699 28
2160 2696 2700 28
2161 2701 2702 28
2162 2701 2703 28
2163 2701 2704 28
2164 2701 2705 28
2165 2706 2707 28
2166 2706 2708 28
2167 2706 2709 28
2168 2706 2710 28
2169 2711 2712 28
2170 2711 2713 28
2171 2711 2714 28
2172 2711 2715 28
2173 2716 2717 28
2174 2716 2718 28
2175 2716 2719 28
2176 2716 2720 28
2177 2721 2722 28
2178 2721 2723 28
2179 2721 2724 28
2180 2721 2725 28
2181 2726 2727 28
2182 2726 2728 28
2183 2726 2729 28
2184 2726 2730 28
2185 2731 2732 28
2186 2731 2733 28
2187 2731 2734 28
2188 2731 2735 28
2189 2736 2737 28
2190 2736 2738 28
2191 2736 2739 28
2192 2736 2740 28
2193 2741 2742 28
2194 2741 2743 28
2195 2741 2744 28
2196 2741 2745 28
2197 2746 2747 28
2198 2746 2748 28
2199 2746 2749 28
2200 2746 2750 28
2201 2751 2752 28
2202 2751 2753 28
2203 2751 2754 28
2204 2751 2755 28
2205 2756 2757 28
2206 2756 2758 28
2207 2756 2759 28
2208 2756 2760 28
2209 2761 2762 28
2210 2761 2763 28
2211 2761 2764 28
2212 2761 2765 28
2213 2766 2767 28
2214 2766 2768 28
2215 2766 2769 28
2216 2766 2770 28
2217 2771 2772 28
2218 2771 2773 28
2219 2771 2774 28
2220 2771 2775 28
2221 2776 2777 28
2222 2776 2778 28
2223 2776 2779 28
2224 2776 2780 28
2225 2781 2782 28
2226 2781 2783 28
2227 2781 2784 28
2228 2781 2785 28
2229 2786 2787 28
2230 2786 2788 28
2231 2786 2789 28
2232 2786 2790 28
2233 2791 2792 28
2234 2791 2793 28
2235 2791 2794 28
2236 2791 2795 28
2237 2796 2797 28
2238 2796 2798 28
2239 2796 2799 28
2240 2796 2800 28
2241 2801 2802 28
2242 2801 2803 28
2243 2801 2804 28
2244 2801 2805 28
2245 2806 2807 28
2246 2806 2808 28
2247 2806 2809 28
2248 2806 2810 28
2249 2811 2812 28
2250 2811 2813 28
2251 2811 2814 28
2252 2811 2815 28
2253 2816 2817 28
2254 2816 2818 28
2255 2816 2819 28
2256 2816 2820 28
2257 2821 2822 28
2258 2821 2823 28
2259 2821 2824 28
2260 2821 2825 28
2261 2826 2827 28
2262 2826 2828 28
2263 2826 2829 28
2264 2826 2830 28
2265 2831 2832 28
2266 2831 2833 28
2267 2831 2834 28
2268 2831 2835 28
2269 2836 2837 28
2270 2836 2838 28
2271 2836 2839 28
2272 2836 2840 28
2273 2841 2842 28
2274 2841 2843 28
2275 2841 2844 28
2276 2841 2845 28
2277 2846 2847 28
2278 2846 2848 28
2279 2846 2849 28
2280 2846 2850 28
2281 2851 2852 28
2282 2851 2853 28
2283 2851 2854 28
2284 2851 2855 28
2285 2856 2857 28
2286 2856 2858 28
2287 2856 2859 28
2288 2856 2860 28
2289 2861 2862 28
2290 2861 2863 28
2291 2861 2864 28
2292 2861 2865 28
2293 2866 2867 28
2294 2866 2868 28
2295 2866 2869 28
2296 2866 2870 28
2297 2871 2872 28
2298 2871 2873 28
2299 2871 2874 28
2300 2871 2875 28
2301 2876 2877 28
2302 2876 2878 28
2303 2876 2879 28
2304 2876 2880 28
2305 2881 2882 28
2306 2881 2883 28
2307 2881 2884 28
2308 2881 2885 28
2309 2886 2887 28
2310 2886 2888 28
2311 2886 2889 28
2312 2886 2890 28
2313 2891 2892 28
2314 2891 2893 28
2315 2891 2894 28
2316 2891 2895 28
2317 2896 2897 28
2318 2896 2898 28
2319 2896 2899 28
2320 2896 2900 28
2321 2901 2902 28
2322 2901 2903 28
2323 2901 2904 28
2324 2901 2905 28
2325 2906 2907 28
2326 2906 2908 28
2327 2906 2909 28
2328 2906 2910 28
2329 2911 2912 28
2330 2911 2913 28
2331 2911 2914 28
2332 2911 2915 28
2333 2916 2917 28
2334 2916 2918 28
2335 2916 2919 28
2336 2916 2920 28
2337 2921 2922 28
2338 2921 2923 28
2339 2921 2924 28
2340 2921 2925 28
2341 2926 2927 28
2342 2926 2928 28
2343 2926 2929 28
2344 2926 2930 28
2345 2931 2932 28
2346 2931 2933 28
2347 2931 2934 28
2348 2931 2935 28
2349 2936 2937 28
2350 2936 2938 28
2351 2936 2939 28
2352 2936 2940 28
2353 2941 2942 28
2354 2941 2943 28
2355 2941 2944 28
2356 2941 2945 28
2357 2946 2947 28
2358 2946 2948 28
2359 2946 2949 28
2360 2946 2950 28
2361 2951 2952 28
2362 2951 2953 28
2363 2951 2954 28
2364 2951 2955 28
2365 2956 2957 28
2366 2956 2958 28
2367 2956 2959 28
2368 2956 2960 28
2369 2961 2962 28
2370 2961 2963 28
2371 2961 2964 28
2372 2961 2965 28
2373 2966 2967 28
2374 2966 2968 28
2375 2966 2969 28
2376 2966 2970 28
2377 2971 2972 28
2378 2971 2973 28
2379 2971 2974 28
2380 2971 2975 28
2381 2976 2977 28
2382 2976 2978 28
2383 2976 2979 28
2384 2976 2980 28
2385 2981 2982 28
2386 2981 2983 28
2387 2981 2984 28
2388 2981 2985 28
2389 2986 2987 28
2390 2986 2988 28
2391 2986 2989 28
2392 2986 2990 28
2393 2991 2992 28
2394 2991 2993 28
2395 2991 2994 28
2396 2991 2995 28
2397 2996 2997 28
2398 2996 2998 28
2399 2996 2999 28
2400 2996 3000 28
2401 3001 3002 28
2402 3001 3003 28
2403 3001 3004 28
2404 3001 3005 28
2405 3006 3007 28
2406 3006 3008 28
2407 3006 3009 28
2408 3006 3010 28
2409 3011 3012 28
2410 3011 3013 28
2411 3011 3014 28
2412 3011 3015 28
2413 3016 3017 28
2414 3016 3018 28
2415 3016 3019 28
2416 3016 3020 28
2417 3021 3022 28
2418 3021 3023 28
2419 3021 3024 28
2420 3021 3025 28
2421 3026 3027 28
2422 3026 3028 28
2423 3026 3029 28
2424 3026 3030 28
2425 3031 3032 28
2426 3031 3033 28
2427 3031 3034 28
2428 3031 3035 28
2429 3036 3037 28
2430 3036 3038 28
2431 3036 3039 28
2432 3036 3040 28
2433 3041 3042 28
2434 3041 3043 28
2435 3041 3044 28
2436 3041 3045 28
2437 3046 3047 28
2438 3046 3048 28
2439 3046 3049 28
2440 3046 3050 28
2441 3051 3052 28
2442 3051 3053 28
2443 3051 3054 28
2444 3051 3055 28
2445 3056 3057 28
2446 3056 3058 28
2447 3056 3059 28
2448 3056 3060 28
2449 3061 3062 28
2450 3061 3063 28
2451 3061 3064 28
2452 3061 3065 28
2453 3066 3067 28
2454 3066 3068 28
2455 3066 3069 28
2456 3066 3070 28
2457 3071 3072 28
2458 3071 3073 28
2459 3071 3074 28
2460 3071 3075 28
2461 3076 3077 28
2462 3076 3078 28
2463 3076 3079 28
2464 3076 3080 28
2465 3081 3082 28
2466 3081 3083 28
2467 3081 3084 28
2468 3081 3085 28
2469 3086 3087 28
2470 3086 3088 28
2471 3086 3089 28
2472 3086 3090 28
2473 3091 3092 28
2474 3091 3093 28
2475 3091 3094 28
2476 3091 3095 28
2477 3096 3097 28
2478 3096 3098 28
2479 3096 3099 28
2480 3096 3100 28
2481 3101 3102 28
2482 3101 3103 28
2483 3101 3104 28
2484 3101 3105 28
2485 3106 3107 28
2486 3106 3108 28
2487 3106 3109 28
2488 3106 3110 28
2489 3111 3112 28
2490 3111 3113 28
2491 3111 3114 28
2492 3111 3115 28
2493 3116 3117 28
2494 3116 3118 28
2495 3116 3119 28
2496 3116 3120 28
2497 3121 3122 28
2498 3121 3123 28
2499 3121 3124 28
2500 3121 3125 28
2501 3126 3127 28
2502 3126 3128 28
2503 3126 3129 28
2504 3126 3130 28
2505 3131 3132 28
2506 3131 3133 28
2507 3131 3134 28
2508 3131 3135 28
2509 3136 3137 28
2510 3136 3138 28
2511 3136 3139 28
2512 3136 3140 28
2513 3141 3142 28
2514 3141 3143 28
2515 3141 3144 28
2516 3141 3145 28
2517 3146 3147 28
2518 3146 3148 28
2519 3146 3149 28
2520 3146 3150 28
2521 3151 3152 28
2522 3151 3153 28
2523 3151 3154 28
2524 3151 3155 28
2525 3156 3157 28
2526 3156 3158 28
2527 3156 3159 28
2528 3156 3160 28
2529 3161 3162 28
2530 3161 3163 28
2531 3161 3164 28
2532 3161 3165 28
2533 3166 3167 28
2534 3166 3168 28
2535 3166 3169 28
2536 3166 3170 28
2537 3171 3172 28
2538 3171 3173 28
2539 3171 3174 28
2540 3171 3175 28
2541 3176 3177 28
2542 3176 3178 28
2543 3176 3179 28
2544 3176 3180 28
2545 3181 3182 28
2546 3181 3183 28
2547 3181 3184 28
2548 3181 3185 28
2549 3186 3187 28
2550 3186 3188 28
2551 3186 3189 28
2552 3186 3190 28
2553 3191 3192 28
2554 3191 3193 28
2555 3191 3194 28
2556 3191 3195 28
2557 3196 3197 28
2558 3196 3198 28
2559 3196 3199 28
2560 3196 3200 28
2561 3201 3202 28
2562 3201 3203 28
2563 3201 3204 28
2564 3201 3205 28
2565 3206 3207 28
2566 3206 3208 28
2567 3206 3209 28
2568 3206 3210 28
2569 3211 3212 28
2570 3211 3213 28
2571 3211 3214 28
2572 3211 3215 28
2573 3216 3217 28
2574 3216 3218 28
2575 3216 3219 28
2576 3216 3220 28
2577 3221 3222 28
2578 3221 3223 28
2579 3221 3224 28
2580 3221 3225 28
2581 3226 3227 28
2582 3226 3228 28
2583 3226 3229 28
2584 3226 3230 28
2585 3231 3232 28
2586 3231 3233 28
2587 3231 3234 28
2588 3231 3235 28
2589 3236 3237 28
2590 3236 3238 28
2591 3236 3239 28
2592 3236 3240 28
2593 3241 3242 28
2594 3241 3243 28
2595 3241 3244 28
2596 3241 3245 28
2597 3246 3247 28
2598 3246 3248 28
2599 3246 3249 28
2600 3246 3250 28
2601 3251 3252 28
2602 3251 3253 28
2603 3251 3254 28
2604 3251 3255 28
2605 3256 3257 28
2606 3256 3258 28
2607 3256 3259 28
2608 3256 3260 28
2609 3261 3262 28
2610 3261 3263 28
2611 3261 3264 28
2612 3261 3265 28
2613 3266 3267 28
2614 3266 3268 28
2615 3266 3269 28
2616 3266 3270 28
2617 3271 3272 28
2618 3271 3273 28
2619 3271 3274 28
2620 3271 3275 28
2621 3276 3277 28
2622 3276 3278 28
2623 3276 3279 28
2624 3276 3280 28
2625 3281 3282 28
2626 3281 3283 28
2627 3281 3284 28
2628 3281 3285 28
2629 3286 3287 28
2630 3286 3288 28
2631 3286 3289 28
2632 3286 3290 28
2633 3291 3292 28
2634 3291 3293 28
2635 3291 3294 28
2636 3291 3295 28
2637 3296 3297 28
2638 3296 3298 28
2639 3296 3299 28
2640 3296 3300 28
2641 3301 3302 28
2642 3301 3303 28
2643 3301 3304 28
2644 3301 3305 28
2645 3306 3307 28
2646 3306 3308 28
2647 3306 3309 28
2648 3306 3310 28
2649 3311 3312 28
2650 3311 3313 28
2651 3311 3314 28
2652 3311 3315 28
2653 3316 3317 28
2654 3316 3318 28
2655 3316 3319 28
2656 3316 3320 28
2657 3321 3322 28
2658 3321 3323 28
2659 3321 3324 28
2660 3321 3325 28
2661 3326 3327 28
2662 3326 3328 28
2663 3326 3329 28
2664 3326 3330 28
2665 3331 3332 28
2666 3331 3333 28
2667 3331 3334 28
2668 3331 3335 28
2669 3336 3337 28
2670 3336 3338 28
2671 3336 3339 28
2672 3336 3340 28
2673 3341 3342 28
2674 3341 3343 28
2675 3341 3344 28
2676 3341 3345 28
2677 3346 3347 28
2678 3346 3348 28
2679 3346 3349 28
2680 3346 3350 28
2681 3351 3352 28
2682 3351 3353 28
2683 3351 3354 28
2684 3351 3355 28
2685 3356 3357 28
2686 3356 3358 28
2687 3356 3359 28
2688 3356 3360 28
2689 3361 3362 28
2690 3361 3363 28
2691 3361 3364 28
2692 3361 3365 28
2693 3366 3367 28
2694 3366 3368 28
2695 3366 3369 28
2696 3366 3370 28
2697 3371 3372 28
2698 3371 3373 28
2699 3371 3374 28
2700 3371 3375 28
2701 3376 3377 28
2702 3376 3378 28
2703 3376 3379 28
2704 3376 3380 28
2705 3381 3382 28
2706 3381 3383 28
2707 3381 3384 28
2708 3381 3385 28
2709 3386 3387 28
2710 3386 3388 28
2711 3386 3389 28
2712 3386 3390 28
2713 3391 3392 28
2714 3391 3393 28
2715 3391 3394 28
2716 3391 3395 28
2717 3396 3397 28
2718 3396 3398 28
2719 3396 3399 28
2720 3396 3400 28
2721 3401 3402 28
2722 3401 3403 28
2723 3401 3404 28
2724 3401 3405 28
2725 3406 3407 28
2726 3406 3408 28
2727 3406 3409 28
2728 3406 3410 28
2729 3411 3412 28
2730 3411 3413 28
2731 3411 3414 28
2732 3411 3415 28
2733 3416 3417 28
2734 3416 3418 28
2735 3416 3419 28
2736 3416 3420 28
2737 3421 3422 28
2738 3421 3423 28
2739 3421 3424 28
2740 3421 3425 28
2741 3426 3427 28
2742 3426 3428 28
2743 3426 3429 28
2744 3426 3430 28
2745 3431 3432 28
2746 3431 3433 28
2747 3431 3434 28
2748 3431 3435 28
2749 3436 3437 28
2750 3436 3438 28
2751 3436 3439 28
2752 3436 3440 28
2753 3441 3442 28
2754 3441 3443 28
2755 3441 3444 28
2756 3441 3445 28
2757 3446 3447 28
2758 3446 3448 28
2759 3446 3449 28
2760 3446 3450 28
2761 3451 3452 28
2762 3451 3453 28
2763 3451 3454 28
2764 3451 3455 28
2765 3456 3457 28
2766 3456 3458 28
2767 3456 3459 28
2768 3456 3460 28
2769 3461 3462 28
2770 3461 3463 28
2771 3461 3464 28
2772 3461 3465 28
2773 3466 3467 28
2774 3466 3468 28
2775 3466 3469 28
2776 3466 3470 28
2777 3471 3472 28
2778 3471 3473 28
2779 3471 3474 28
2780 3471 3475 28
2781 3476 3477 28
2782 3476 3478 28
2783 3476 3479 28
2784 3476 3480 28
2785 3481 3482 28
2786 3481 3483 28
2787 3481 3484 28
2788 3481 3485 28
2789 3486 3487 28
2790 3486 3488 28
2791 3486 3489 28
2792 3486 3490 28
2793 3491 3492 28
2794 3491 3493 28
2795 3491 3494 28
2796 3491 3495 28
2797 3496 3497 28
2798 3496 3498 28
2799 3496 3499 28
2800 3496 3500 28
2801 3501 3502 28
2802 3501 3503 28
2803 3501 3504 28
2804 3501 3505 28
2805 3506 3507 28
2806 3506 3508 28
2807 3506 3509 28
2808 3506 3510 28
2809 3511 3512 28
2810 3511 3513 28
2811 3511 3514 28
2812 3511 3515 28
2813 3516 3517 28
2814 3516 3518 28
2815 3516 3519 28
2816 3516 3520 28
2817 3521 3522 28
2818 3521 3523 28
2819 3521 3524 28
2820 3521 3525 28
2821 3526 3527 28
2822 3526 3528 28
2823 3526 3529 28
2824 3526 3530 28
2825 3531 3532 28
2826 3531 3533 28
2827 3531 3534 28
2828 3531 3535 28
2829 3536 3537 28
2830 3536 3538 28
2831 3536 3539 28
2832 3536 3540 28
2833 3541 3542 28
2834 3541 3543 28
2835 3541 3544 28
2836 3541 3545 28
2837 3546 3547 28
2838 3546 3548 28
2839 3546 3549 28
2840 3546 3550 28
2841 3551 3552 28
2842 3551 3553 28
2843 3551 3554 28
2844 3551 3555 28
2845 3556 3557 28
2846 3556 3558 28
2847 3556 3559 28
2848 3556 3560 28
2849 3561 3562 28
2850 3561 3563 28
2851 3561 3564 28
2852 3561 3565 28
2853 3566 3567 28
2854 3566 3568 28
2855 3566 3569 28
2856 3566 3570 28
2857 3571 3572 28
2858 3571 3573 28
2859 3571 3574 28
2860 3571 3575 28
2861 3576 3577 28
2862 3576 3578 28
2863 3576 3579 28
2864 3576 3580 28
2865 3581 3582 28
2866 3581 3583 28
2867 3581 3584 28
2868 3581 3585 28
2869 3586 3587 28
2870 3586 3588 28
2871 3586 3589 28
2872 3586 3590 28
2873 3591 3592 28
2874 3591 3593 28
2875 3591 3594 28
2876 3591 3595 28
2877 3596 3597 28
2878 3596 3598 28
2879 3596 3599 28
2880 3596 3600 28
2881 3601 3602 28
2882 3601 3603 28
2883 3601 3604 28
2884 3601 3605 28
2885 3606 3607 28
2886 3606 3608 28
2887 3606 3609 28
2888 3606 3610 28
2889 3611 3612 28
2890 3611 3613 28
2891 3611 3614 28
2892 3611 3615 28
2893 3616 3617 28
2894 3616 3618 28
2895 3616 3619 28
2896 3616 3620 28
2897 3621 3622 28
2898 3621 3623 28
2899 3621 3624 28
2900 3621 3625 28
2901 3626 3627 28
2902 3626 3628 28
2903 3626 3629 28
2904 3626 3630 28
2905 3631 3632 28
2906 3631 3633 28
2907 3631 3634 28
2908 3631 3635 28
2909 3636 3637 28
2910 3636 3638 28
2911 3636 3639 28
2912 3636 3640 28
2913 3641 3642 28
2914 3641 3643 28
2915 3641 3644 28
2916 3641 3645 28
2917 3646 3647 28
2918 3646 3648 28
2919 3646 3649 28
2920 3646 3650 28
2921 3651 3652 28
2922 3651 3653 28
2923 3651 3654 28
2924 3651 3655 28
2925 3656 3657 28
2926 3656 3658 28
2927 3656 3659 28
2928 3656 3660 28
2929 3661 3662 28
2930 3661 3663 28
2931 3661 3664 28
2932 3661 3665 28
2933 3666 3667 28
2934 3666 3668 28
2935 3666 3669 28
2936 3666 3670 28
2937 3671 3672 28
2938 3671 3673 28
2939 3671 3674 28
2940 3671 3675 28
2941 3676 3677 28
2942 3676 3678 28
2943 3676 3679 28
2944 3676 3680 28
2945 3681 3682 28
2946 3681 3683 28
2947 3681 3684 28
2948 3681 3685 28
2949 3686 3687 28
2950 3686 3688 28
2951 3686 3689 28
2952 3686 3690 28
2953 3691 3692 28
2954 3691 3693 28
2955 3691 3694 28
2956 3691 3695 28
2957 3696 3697 28
2958 3696 3698 28
2959 3696 3699 28
2960 3696 3700 28
2961 3701 3702 28
2962 3701 3703 28
2963 3701 3704 28
2964 3701 3705 28
2965 3706 3707 28
2966 3706 3708 28
2967 3706 3709 28
2968 3706 3710 28
2969 3711 3712 28
2970 3711 3713 28
2971 3711 3714 28
2972 3711 3715 28
2973 3716 3717 28
2974 3716 3718 28
2975 3716 3719 28
2976 3716 3720 28
2977 3721 3722 28
2978 3721 3723 28
2979 3721 3724 28
2980 3721 3725 28
2981 3726 3727 28
2982 3726 3728 28
2983 3726 3729 28
2984 3726 3730 28
2985 3731 3732 28
2986 3731 3733 28
2987 3731 3734 28
2988 3731 3735 28
2989 3736 3737 28
2990 3736 3738 28
2991 3736 3739 28
2992 3736 3740 28
2993 3741 3742 28
2994 3741 3743 28
2995 3741 3744 28
2996 3741 3745 28
2997 3746 3747 28
2998 3746 3748 28
2999 3746 3749 28
3000 3746 3750 28
3001 3751 3752 28
3002 3751 3753 28
3003 3751 3754 28
3004 3751 3755 28
3005 3756 3757 28
3006 3756 3758 28
3007 3756 3759 28
3008 3756 3760 28
3009 3761 3762 28
3010 3761 3763 28
3011 3761 3764 28
3012 3761 3765 28
3013 3766 3767 28
3014 3766 3768 28
3015 3766 3769 28
3016 3766 3770 28
3017 3771 3772 28
3018 3771 3773 28
3019 3771 3774 28
3020 3771 3775 28
3021 3776 3777 28
3022 3776 3778 28
3023 3776 3779 28
3024 3776 3780 28
3025 3781 3782 28
3026 3781 3783 28
3027 3781 3784 28
3028 3781 3785 28
3029 3786 3787 28
3030 3786 3788 28
3031 3786 3789 28
3032 3786 3790 28
3033 3791 3792 28
3034 3791 3793 28
3035 3791 3794 28
3036 3791 3795 28
3037 3796 3797 28
3038 3796 3798 28
3039 3796 3799 28
3040 3796 3800 28
3041 3801 3802 28
3042 3801 3803 28
3043 3801 3804 28
3044 3801 3805 28
3045 3806 3807 28
3046 3806 3808 28
3047 3806 3809 28
3048 3806 3810 28
3049 3811 3812 28
3050 3811 3813 28
3051 3811 3814 28
3052 3811 3815 28
3053 3816 3817 28
3054 3816 3818 28
3055 3816 3819 28
3056 3816 3820 28
3057 3821 3822 28
3058 3821 3823 28
3059 3821 3824 28
3060 3821 3825 28
3061 3826 3827 28
3062 3826 3828 28
3063 3826 3829 28
3064 3826 3830 28
3065 3831 3832 28
3066 3831 3833 28
3067 3831 3834 28
3068 3831 3835 28
3069 3836 3837 28
3070 3836 3838 28
3071 3836 3839 28
3072 3836 3840 28
3073 3841 3842 28
3074 3841 3843 28
3075 3841 3844 28
3076 3841 3845 28
3077 3846 3847 28
3078 3846 3848 28
3079 3846 3849 28
3080 3846 3850 28
3081 3851 3852 28
3082 3851 3853 28
3083 3851 3854 28
3084 3851 3855 28
3085 3856 3857 28
3086 3856 3858 28
3087 3856 3859 28
3088 3856 3860 28
3089 3861 3862 28
3090 3861 3863 28
3091 3861 3864 28
3092 3861 3865 28
3093 3866 3867 28
3094 3866 3868 28
3095 3866 3869 28
3096 3866 3870 28
3097 3871 3872 28
3098 3871 3873 28
3099 3871 3874 28
3100 3871 3875 28
3101 3876 3877 28
3102 3876 3878 28
3103 3876 3879 28
3104 3876 3880 28
3105 3881 3882 28
3106 3881 3883 28
3107 3881 3884 28
3108 3881 3885 28
3109 3886 3887 28
3110 3886 3888 28
3111 3886 3889 28
3112 3886 3890 28
3113 3891 3892 28
3114 3891 3893 28
3115 3891 3894 28
3116 3891 3895 28
3117 3896 3897 28
3118 3896 3898 28
3119 3896 3899 28
3120 3896 3900 28
3121 3901 3902 28
3122 3901 3903 28
3123 3901 3904 28
3124 3901 3905 28
3125 3906 3907 28
3126 3906 3908 28
3127 3906 3909 28
3128 3906 3910 28
3129 3911 3912 28
3130 3911 3913 28
3131 3911 3914 28
3132 3911 3915 28
3133 3916 3917 28
3134 3916 3918 28
3135 3916 3919 28
3136 3916 3920 28
3137 3921 3922 28
3138 3921 3923 28
3139 3921 3924 28
3140 3921 3925 28
3141 3926 3927 28
3142 3926 3928 28
3143 3926 3929 28
3144 3926 3930 28
3145 3931 3932 28
3146 3931 3933 28
3147 3931 3934 28
3148 3931 3935 28
3149 3936 3937 28
3150 3936 3938 28
3151 3936 3939 28
3152 3936 3940 28
3153 3941 3942 28
3154 3941 3943 28
3155 3941 3944 28
3156 3941 3945 28
3157 3946 3947 28
3158 3946 3948 28
3159 3946 3949 28
3160 3946 3950 28
3161 3951 3952 28
3162 3951 3953 28
3163 3951 3954 28
3164 3951 3955 28
3165 3956 3957 28
3166 3956 3958 28
3167 3956 3959 28
3168 3956 3960 28
3169 3961 3962 28
3170 3961 3963 28
3171 3961 3964 28
3172 3961 3965 28
3173 3966 3967 28
3174 3966 3968 28
3175 3966 3969 28
3176 3966 3970 28
3177 3971 3972 28
3178 3971 3973 28
3179 3971 3974 28
3180 3971 3975 28
3181 3976 3977 28
3182 3976 3978 28
3183 3976 3979 28
3184 3976 3980 28
3185 3981 3982 28
3186 3981 3983 28
3187 3981 3984 28
3188 3981 3985 28
3189 3986 3987 28
3190 3986 3988 28
3191 3986 3989 28
3192 3986 3990 28
3193 3991 3992 28
3194 3991 3993 28
3195 3991 3994 28
3196 3991 3995 28
3197 3996 3997 28
3198 3996 3998 28
3199 3996 3999 28
3200 3996 4000 28
3201 4001 4002 28
3202 4001 4003 28
3203 4001 4004 28
3204 4001 4005 28
3205 4006 4007 28
3206 4006 4008 28
3207 4006 4009 28
3208 4006 4010 28
3209 4011 4012 28
3210 4011 4013 28
3211 4011 4014 28
3212 4011 4015 28
3213 4016 4017 28
3214 4016 4018 28
3215 4016 4019 28
3216 4016 4020 28
3217 4021 4022 28
3218 4021 4023 28
3219 4021 4024 28
3220 4021 4025 28
3221 4026 4027 28
3222 4026 4028 28
3223 4026 4029 28
3224 4026 4030 28
3225 4031 4032 28
3226 4031 4033 28
3227 4031 4034 28
3228 4031 4035 28
3229 4036 4037 28
3230 4036 4038 28
3231 4036 4039 28
3232 4036 4040 28
3233 4041 4042 28
3234 4041 4043 28
3235 4041 4044 28
3236 4041 4045 28
3237 4046 4047 28
3238 4046 4048 28
3239 4046 4049 28
3240 4046 4050 28
3241 4051 4052 28
3242 4051 4053 28
3243 4051 4054 28
3244 4051 4055 28
3245 4056 4057 28
3246 4056 4058 28
3247 4056 4059 28
3248 4056 4060 28
3249 4061 4062 28
3250 4061 4063 28
3251 4061 4064 28
3252 4061 4065 28
3253 4066 4067 28
3254 4066 4068 28
3255 4066 4069 28
3256 4066 4070 28
3257 4071 4072 28
3258 4071 4073 28
3259 4071 4074 28
3260 4071 4075 28
3261 4076 4077 28
3262 4076 4078 28
3263 4076 4079 28
3264 4076 4080 28
3265 4081 4082 28
3266 4081 4083 28
3267 4081 4084 28
3268 4081 4085 28
3269 4086 4087 28
3270 4086 4088 28
3271 4086 4089 28
3272 4086 4090 28
3273 4091 4092 28
3274 4091 4093 28
3275 4091 4094 28
3276 4091 4095 28
3277 4096 4097 28
3278 4096 4098 28
3279 4096 4099 28
3280 4096 4100 28
3281 4101 4102 28
3282 4101 4103 28
3283 4101 4104 28
3284 4101 4105 28
3285 4106 4107 28
3286 4106 4108 28
3287 4106 4109 28
3288 4106 4110 28
3289 4111 4112 28
3290 4111 4113 28
3291 4111 4114 28
3292 4111 4115 28
3293 4116 4117 28
3294 4116 4118 28
3295 4116 4119 28
3296 4116 4120 28
3297 4121 4122 28
3298 4121 4123 28
3299 4121 4124 28
3300 4121 4125 28
3301 4126 4127 28
3302 4126 4128 28
3303 4126 4129 28
3304 4126 4130 28
3305 4131 4132 28
3306 4131 4133 28
3307 4131 4134 28
3308 4131 4135 28
3309 4136 4137 28
3310 4136 4138 28
3311 4136 4139 28
3312 4136 4140 28
3313 4141 4142 28
3314 4141 4143 28
3315 4141 4144 28
3316 4141 4145 28
3317 4146 4147 28
3318 4146 4148 28
3319 4146 4149 28
3320 4146 4150 28
3321 4151 4152 28
3322 4151 4153 28
3323 4151 4154 28
3324 4151 4155 28
3325 4156 4157 28
3326 4156 4158 28
3327 4156 4159 28
3328 4156 4160 28
3329 4161 4162 28
3330 4161 4163 28
3331 4161 4164 28
3332 4161 4165 28
3333 4166 4167 28
3334 4166 4168 28
3335 4166 4169 28
3336 4166 4170 28
3337 4171 4172 28
3338 4171 4173 28
3339 4171 4174 28
3340 4171 4175 28
3341 4176 4177 28
3342 4176 4178 28
3343 4176 4179 28
3344 4176 4180 28
3345 4181 4182 28
3346 4181 4183 28
3347 4181 4184 28
3348 4181 4185 28
3349 4186 4187 28
3350 4186 4188 28
3351 4186 4189 28
3352 4186 4190 28
3353 4191 4192 28
3354 4191 4193 28
3355 4191 4194 28
3356 4191 4195 28
3357 4196 4197 28
3358 4196 4198 28
3359 4196 4199 28
3360 4196 4200 28
3361 4201 4202 28
3362 4201 4203 28
3363 4201 4204 28
3364 4201 4205 28
3365 4206 4207 28
3366 4206 4208 28
3367 4206 4209 28
3368 4206 4210 28
3369 4211 4212 28
3370 4211 4213 28
3371 4211 4214 28
3372 4211 4215 28
3373 4216 4217 28
3374 4216 4218 28
3375 4216 4219 28
3376 4216 4220 28
3377 4221 4222 28
3378 4221 4223 28
3379 4221 4224 28
3380 4221 4225 28
3381 4226 4227 28
3382 4226 4228 28
3383 4226 4229 28
3384 4226 4230 28
3385 4231 4232 28
3386 4231 4233 28
3387 4231 4234 28
3388 4231 4235 28
3389 4236 4237 28
3390 4236 4238 28
3391 4236 4239 28
3392 4236 4240 28
3393 4241 4242 28
3394 4241 4243 28
3395 4241 4244 28
3396 4241 4245 28
3397 4246 4247 28
3398 4246 4248 28
3399 4246 4249 28
3400 4246 4250 28
3401 4251 4252 28
3402 4251 4253 28
3403 4251 4254 28
3404 4251 4255 28
3405 4256 4257 28
3406 4256 4258 28
3407 4256 4259 28
3408 4256 4260 28
3409 4261 4262 28
3410 4261 4263 28
3411 4261 4264 28
3412 4261 4265 28
3413 4266 4267 28
3414 4266 4268 28
3415 4266 4269 28
3416 4266 4270 28
3417 4271 4272 28
3418 4271 4273 28
3419 4271 4274 28
3420 4271 4275 28
3421 4276 4277 28
3422 4276 4278 28
3423 4276 4279 28
3424 4276 4280 28
3425 4281 4282 28
3426 4281 4283 28
3427 4281 4284 28
3428 4281 4285 28
3429 4286 4287 28
3430 4286 4288 28
3431 4286 4289 28
3432 4286 4290 28
3433 4291 4292 28
3434 4291 4293 28
3435 4291 4294 28
3436 4291 4295 28
3437 4296 4297 28
3438 4296 4298 28
3439 4296 4299 28
3440 4296 4300 28
3441 4301 4302 28
3442 4301 4303 28
3443 4301 4304 28
3444 4301 4305 28
3445 4306 4307 28
3446 4306 4308 28
3447 4306 4309 28
3448 4306 4310 28
3449 4311 4312 28
3450 4311 4313 28
3451 4311 4314 28
3452 4311 4315 28
3453 4316 4317 28
3454 4316 4318 28
3455 4316 4319 28
3456 4316 4320 28
3457 4321 4322 28
3458 4321 4323 28
3459 4321 4324 28
3460 4321 4325 28
3461 4326 4327 28
3462 4326 4328 28
3463 4326 4329 28
3464 4326 4330 28
3465 4331 4332 28
3466 4331 4333 28
3467 4331 4334 28
3468 4331 4335 28
3469 4336 4337 28
3470 4336 4338 28
3471 4336 4339 28
3472 4336 4340 28
3473 4341 4342 28
3474 4341 4343 28
3475 4341 4344 28
3476 4341 4345 28
3477 4346 4347 28
3478 4346 4348 28
3479 4346 4349 28
3480 4346 4350 28
3481 4351 4352 28
3482 4351 4353 28
3483 4351 4354 28
3484 4351 4355 28
3485 4356 4357 28
3486 4356 4358 28
3487 4356 4359 28
3488 4356 4360 28
3489 4361 4362 28
3490 4361 4363 28
3491 4361 4364 28
3492 4361 4365 28
3493 4366 4367 28
3494 4366 4368 28
3495 4366 4369 28
3496 4366 4370 28
3497 4371 4372 28
3498 4371 4373 28
3499 4371 4374 28
3500 4371 4375 28
3501 4376 4377 28
3502 4376 4378 28
3503 4376 4379 28
3504 4376 4380 28
3505 4381 4382 28
3506 4381 4383 28
3507 4381 4384 28
3508 4381 4385 28
3509 4386 4387 28
3510 4386 4388 28
3511 4386 4389 28
3512 4386 4390 28
3513 4391 4392 28
3514 4391 4393 28
3515 4391 4394 28
3516 4391 4395 28
3517 4396 4397 28
3518 4396 4398 28
3519 4396 4399 28
3520 4396 4400 28
3521 4401 4402 28
3522 4401 4403 28
3523 4401 4404 28
3524 4401 4405 28
3525 4406 4407 28
3526 4406 4408 28
3527 4406 4409 28
3528 4406 4410 28
3529 4411 4412 28
3530 4411 4413 28
3531 4411 4414 28
3532 4411 4415 28
3533 4416 4417 28
3534 4416 4418 28
3535 4416 4419 28
3536 4416 4420 28
3537 4421 4422 28
3538 4421 4423 28
3539 4421 4424 28
3540 4421 4425 28
3541 4426 4427 28
3542 4426 4428 28
3543 4426 4429 28
3544 4426 4430 28
3545 4431 4432 28
3546 4431 4433 28
3547 4431 4434 28
3548 4431 4435 28
3549 4436 4437 28
3550 4436 4438 28
3551 4436 4439 28
3552 4436 4440 28
3553 4441 4442 28
3554 4441 4443 28
3555 4441 4444 28
3556 4441 4445 28
3557 4446 4447 28
3558 4446 4448 28
3559 4446 4449 28
3560 4446 4450 28
3561 4451 4452 28
3562 4451 4453 28
3563 4451 4454 28
3564 4451 4455 28
3565 4456 4457 28
3566 4456 4458 28
3567 4456 4459 28
3568 4456 4460 28
3569 4461 4462 28
3570 4461 4463 28
3571 4461 4464 28
3572 4461 4465 28
3573 4466 4467 28
3574 4466 4468 28
3575 4466 4469 28
3576 4466 4470 28
3577 4471 4472 28
3578 4471 4473 28
3579 4471 4474 28
3580 4471 4475 28
3581 4476 4477 28
3582 4476 4478 28
3583 4476 4479 28
3584 4476 4480 28
3585 4481 4482 28
3586 4481 4483 28
3587 4481 4484 28
3588 4481 4485 28
3589 4486 4487 28
3590 4486 4488 28
3591 4486 4489 28
3592 4486 4490 28
3593 4491 4492 28
3594 4491 4493 28
3595 4491 4494 28
3596 4491 4495 28
3597 4496 4497 28
3598 4496 4498 28
3599 4496 4499 28
3600 4496 4500 28
3601 4501 4502 28
3602 4501 4503 28
3603 4501 4504 28
3604 4501 4505 28
3605 4506 4507 28
3606 4506 4508 28
3607 4506 4509 28
3608 4506 4510 28
3609 4511 4512 28
3610 4511 4513 28
3611 4511 4514 28
3612 4511 4515 28
3613 4516 4517 28
3614 4516 4518 28
3615 4516 4519 28
3616 4516 4520 28
3617 4521 4522 28
3618 4521 4523 28
3619 4521 4524 28
3620 4521 4525 28
3621 4526 4527 28
3622 4526 4528 28
3623 4526 4529 28
3624 4526 4530 28
3625 4531 4532 28
3626 4531 4533 28
3627 4531 4534 28
3628 4531 4535 28
3629 4536 4537 28
3630 4536 4538 28
3631 4536 4539 28
3632 4536 4540 28
3633 4541 4542 28
3634 4541 4543 28
3635 4541 4544 28
3636 4541 4545 28
3637 4546 4547 28
3638 4546 4548 28
3639 4546 4549 28
3640 4546 4550 28
3641 4551 4552 28
3642 4551 4553 28
3643 4551 4554 28
3644 4551 4555 28
3645 4556 4557 28
3646 4556 4558 28
3647 4556 4559 28
3648 4556 4560 28
3649 4561 4562 28
3650 4561 4563 28
3651 4561 4564 28
3652 4561 4565 28
3653 4566 4567 28
3654 4566 4568 28
3655 4566 4569 28
3656 4566 4570 28
3657 4571 4572 28
3658 4571 4573 28
3659 4571 4574 28
3660 4571 4575 28
3661 4576 4577 28
3662 4576 4578 28
3663 4576 4579 28
3664 4576 4580 28
3665 4581 4582 28
3666 4581 4583 28
3667 4581 4584 28
3668 4581 4585 28
3669 4586 4587 28
3670 4586 4588 28
3671 4586 4589 28
3672 4586 4590 28
3673 4591 4592 28
3674 4591 4593 28
3675 4591 4594 28
3676 4591 4595 28
3677 4596 4597 28
3678 4596 4598 28
3679 4596 4599 28
3680 4596 4600 28
3681 4601 4602 28
3682 4601 4603 28
3683 4601 4604 28
3684 4601 4605 28
3685 4606 4607 28
3686 4606 4608 28
3687 4606 4609 28
3688 4606 4610 28
3689 4611 4612 28
3690 4611 4613 28
3691 4611 4614 28
3692 4611 4615 28
3693 4616 4617 28
3694 4616 4618 28
3695 4616 4619 28
3696 4616 4620 28
3697 4621 4622 28
3698 4621 4623 28
3699 4621 4624 28
3700 4621 4625 28
3701 4626 4627 28
3702 4626 4628 28
3703 4626 4629 28
3704 4626 4630 28
3705 4631 4632 28
3706 4631 4633 28
3707 4631 4634 28
3708 4631 4635 28
3709 4636 4637 28
3710 4636 4638 28
3711 4636 4639 28
3712 4636 4640 28
3713 4641 4642 28
3714 4641 4643 28
3715 4641 4644 28
3716 4641 4645 28
3717 4646 4647 28
3718 4646 4648 28
3719 4646 4649 28
3720 4646 4650 28
3721 4651 4652 28
3722 4651 4653 28
3723 4651 4654 28
3724 4651 4655 28
3725 4656 4657 28
3726 4656 4658 28
3727 4656 4659 28
3728 4656 4660 28
3729 4661 4662 28
3730 4661 4663 28
3731 4661 4664 28
3732 4661 4665 28
3733 4666 4667 28
3734 4666 4668 28
3735 4666 4669 28
3736 4666 4670 28
3737 4671 4672 28
3738 4671 4673 28
3739 4671 4674 28
3740 4671 4675 28
3741 4676 4677 28
3742 4676 4678 28
3743 4676 4679 28
3744 4676 4680 28
3745 4681 4682 28
3746 4681 4683 28
3747 4681 4684 28
3748 4681 4685 28
3749 4686 4687 28
3750 4686 4688 28
3751 4686 4689 28
3752 4686 4690 28
3753 4691 4692 28
3754 4691 4693 28
3755 4691 4694 28
3756 4691 4695 28
3757 4696 4697 28
3758 4696 4698 28
3759 4696 4699 28
3760 4696 4700 28
3761 4701 4702 28
3762 4701 4703 28
3763 4701 4704 28
3764 4701 4705 28
3765 4706 4707 28
3766 4706 4708 28
3767 4706 4709 28
3768 4706 4710 28
3769 4711 4712 28
3770 4711 4713 28
3771 4711 4714 28
3772 4711 4715 28
3773 4716 4717 28
3774 4716 4718 28
3775 4716 4719 28
3776 4716 4720 28
3777 4721 4722 28
3778 4721 4723 28
3779 4721 4724 28
3780 4721 4725 28
3781 4726 4727 28
3782 4726 4728 28
3783 4726 4729 28
3784 4726 4730 28
3785 4731 4732 28
3786 4731 4733 28
3787 4731 4734 28
3788 4731 4735 28
3789 4736 4737 28
3790 4736 4738 28
3791 4736 4739 28
3792 4736 4740 28
3793 4741 4742 28
3794 4741 4743 28
3795 4741 4744 28
3796 4741 4745 28
3797 4746 4747 28
3798 4746 4748 28
3799 4746 4749 28
3800 4746 4750 28
3801 4751 4752 28
3802 4751 4753 28
3803 4751 4754 28
3804 4751 4755 28
3805 4756 4757 28
3806 4756 4758 28
3807 4756 4759 28
3808 4756 4760 28
3809 4761 4762 28
3810 4761 4763 28
3811 4761 4764 28
3812 4761 4765 28
3813 4766 4767 28
3814 4766 4768 28
3815 4766 4769 28
3816 4766 4770 28
3817 4771 4772 28
3818 4771 4773 28
3819 4771 4774 28
3820 4771 4775 28
3821 4776 4777 28
3822 4776 4778 28
3823 4776 4779 28
3824 4776 4780 28
3825 4781 4782 28
3826 4781 4783 28
3827 4781 4784 28
3828 4781 4785 28
3829 4786 4787 28
3830 4786 4788 28
3831 4786 4789 28
3832 4786 4790 28
3833 4791 4792 28
3834 4791 4793 28
3835 4791 4794 28
3836 4791 4795 28
3837 4796 4797 28
3838 4796 4798 28
3839 4796 4799 28
3840 4796 4800 28
3841 4801 4802 28
3842 4801 4803 28
3843 4801 4804 28
3844 4801 4805 28
3845 4806 4807 28
3846 4806 4808 28
3847 4806 4809 28
3848 4806 4810 28
3849 4811 4812 28
3850 4811 4813 28
3851 4811 4814 28
3852 4811 4815 28
3853 4816 4817 28
3854 4816 4818 28
3855 4816 4819 28
3856 4816 4820 28
3857 4821 4822 28
3858 4821 4823 28
3859 4821 4824 28
3860 4821 4825 28
3861 4826 4827 28
3862 4826 4828 28
3863 4826 4829 28
3864 4826 4830 28
3865 4831 4832 28
3866 4831 4833 28
3867 4831 4834 28
3868 4831 4835 28
3869 4836 4837 28
3870 4836 4838 28
3871 4836 4839 28
3872 4836 4840 28
3873 4841 4842 28
3874 4841 4843 28
3875 4841 4844 28
3876 4841 4845 28
3877 4846 4847 28
3878 4846 4848 28
3879 4846 4849 28
3880 4846 4850 28
3881 4851 4852 28
3882 4851 4853 28
3883 4851 4854 28
3884 4851 4855 28
3885 4856 4857 28
3886 4856 4858 28
3887 4856 4859 28
3888 4856 4860 28
3889 4861 4862 28
3890 4861 4863 28
3891 4861 4864 28
3892 4861 4865 28
3893 4866 4867 28
3894 4866 4868 28
3895 4866 4869 28
3896 4866 4870 28
3897 4871 4872 28
3898 4871 4873 28
3899 4871 4874 28
3900 4871 4875 28
3901 4876 4877 28
3902 4876 4878 28
3903 4876 4879 28
3904 4876 4880 28
3905 4881 4882 28
3906 4881 4883 28
3907 4881 4884 28
3908 4881 4885 28
3909 4886 4887 28
3910 4886 4888 28
3911 4886 4889 28
3912 4886 4890 28
3913 4891 4892 28
3914 4891 4893 28
3915 4891 4894 28
3916 4891 4895 28
3917 4896 4897 28
3918 4896 4898 28
3919 4896 4899 28
3920 4896 4900 28
3921 4901 4902 28
3922 4901 4903 28
3923 4901 4904 28
3924 4901 4905 28
3925 4906 4907 28
3926 4906 4908 28
3927 4906 4909 28
3928 4906 4910 28
3929 4911 4912 28
3930 4911 4913 28
3931 4911 4914 28
3932 4911 4915 28
3933 4916 4917 28
3934 4916 4918 28
3935 4916 4919 28
3936 4916 4920 28
3937 4921 4922 28
3938 4921 4923 28
3939 4921 4924 28
3940 4921 4925 28
3941 4926 4927 28
3942 4926 4928 28
3943 4926 4929 28
3944 4926 4930 28
3945 4931 4932 28
3946 4931 4933 28
3947 4931 4934 28
3948 4931 4935 28
3949 4936 4937 28
3950 4936 4938 28
3951 4936 4939 28
3952 4936 4940 28
3953 4941 4942 28
3954 4941 4943 28
3955 4941 4944 28
3956 4941 4945 28
3957 4946 4947 28
3958 4946 4948 28
3959 4946 4949 28
3960 4946 4950 28
3961 4951 4952 28
3962 4951 4953 28
3963 4951 4954 28
3964 4951 4955 28
3965 4956 4957 28
3966 4956 4958 28
3967 4956 4959 28
3968 4956 4960 28
3969 4961 4962 28
3970 4961 4963 28
3971 4961 4964 28
3972 4961 4965 28
3973 4966 4967 28
3974 4966 4968 28
3975 4966 4969 28
3976 4966 4970 28
3977 4971 4972 28
3978 4971 4973 28
3979 4971 4974 28
3980 4971 4975 28
3981 4976 4977 28
3982 4976 4978 28
3983 4976 4979 28
3984 4976 4980 28
3985 4981 4982 28
3986 4981 4983 28
3987 4981 4984 28
3988 4981 4985 28
3989 4986 4987 28
3990 4986 4988 28
3991 4986 4989 28
3992 4986 4990 28
3993 4991 4992 28
3994 4991 4993 28
3995 4991 4994 28
3996 4991 4995 28
3997 4996 4997 28
3998 4996 4998 28
3999 4996 4999 28
4000 4996 5000 28
4001 5001 5002 28
4002 5001 5003 28
4003 5001 5004 28
4004 5001 5005 28
4005 5006 5007 28
4006 5006 5008 28
4007 5006 5009 28
4008 5006 5010 28
4009 5011 5012 28
4010 5011 5013 28
4011 5011 5014 28
4012 5011 5015 28
4013 5016 5017 28
4014 5016 5018 28
4015 5016 5019 28
4016 5016 5020 28
4017 5021 5022 28
4018 5021 5023 28
4019 5021 5024 28
4020 5021 5025 28
4021 5026 5027 28
4022 5026 5028 28
4023 5026 5029 28
4024 5026 5030 28
4025 5031 5032 28
4026 5031 5033 28
4027 5031 5034 28
4028 5031 5035 28
4029 5036 5037 28
4030 5036 5038 28
4031 5036 5039 28
4032 5036 5040 28
4033 5041 5042 28
4034 5041 5043 28
4035 5041 5044 28
4036 5041 5045 28
4037 5046 5047 28
4038 5046 5048 28
4039 5046 5049 28
4040 5046 5050 28
4041 5051 5052 28
4042 5051 5053 28
4043 5051 5054 28
4044 5051 5055 28
4045 5056 5057 28
4046 5056 5058 28
4047 5056 5059 28
4048 5056 5060 28
4049 5061 5062 28
4050 5061 5063 28
4051 5061 5064 28
4052 5061 5065 28
4053 5066 5067 28
4054 5066 5068 28
4055 5066 5069 28
4056 5066 5070 28
4057 5071 5072 28
4058 5071 5073 28
4059 5071 5074 28
4060 5071 5075 28
4061 5076 5077 28
4062 5076 5078 28
4063 5076 5079 28
4064 5076 5080 28
4065 5081 5082 28
4066 5081 5083 28
4067 5081 5084 28
4068 5081 5085 28
4069 5086 5087 28
4070 5086 5088 28
4071 5086 5089 28
4072 5086 5090 28
4073 5091 5092 28
4074 5091 5093 28
4075 5091 5094 28
4076 5091 5095 28
4077 5096 5097 28
4078 5096 5098 28
4079 5096 5099 28
4080 5096 5100 28
4081 5101 5102 28
4082 5101 5103 28
4083 5101 5104 28
4084 5101 5105 28
4085 5106 5107 28
4086 5106 5108 28
4087 5106 5109 28
4088 5106 5110 28
4089 5111 5112 28
4090 5111 5113 28
4091 5111 5114 28
4092 5111 5115 28
4093 5116 5117 28
4094 5116 5118 28
4095 5116 5119 28
4096 5116 5120 28
4097 5121 5122 28
4098 5121 5123 28
4099 5121 5124 28
4100 5121 5125 28
4101 5126 5127 28
4102 5126 5128 28
4103 5126 5129 28
4104 5126 5130 28
4105 5131 5132 28
4106 5131 5133 28
4107 5131 5134 28
4108 5131 5135 28
4109 5136 5137 28
4110 5136 5138 28
4111 5136 5139 28
4112 5136 5140 28
4113 5141 5142 28
4114 5141 5143 28
4115 5141 5144 28
4116 5141 5145 28
4117 5146 5147 28
4118 5146 5148 28
4119 5146 5149 28
4120 5146 5150 28
4121 5151 5152 28
4122 5151 5153 28
4123 5151 5154 28
4124 5151 5155 28
4125 5156 5157 28
4126 5156 5158 28
4127 5156 5159 28
4128 5156 5160 28
4129 5161 5162 28
4130 5161 5163 28
4131 5161 5164 28
4132 5161 5165 28
4133 5166 5167 28
4134 5166 5168 28
4135 5166 5169 28
4136 5166 5170 28
4137 5171 5172 28
4138 5171 5173 28
4139 5171 5174 28
4140 5171 5175 28
4141 5176 5177 28
4142 5176 5178 28
4143 5176 5179 28
4144 5176 5180 28
4145 5181 5182 28
4146 5181 5183 28
4147 5181 5184 28
4148 5181 5185 28
4149 5186 5187 28
4150 5186 5188 28
4151 5186 5189 28
4152 5186 5190 28
4153 5191 5192 28
4154 5191 5193 28
4155 5191 5194 28
4156 5191 5195 28
4157 5196 5197 28
4158 5196 5198 28
4159 5196 5199 28
4160 5196 5200 28
4161 5201 5202 28
4162 5201 5203 28
4163 5201 5204 28
4164 5201 5205 28
4165 5206 5207 28
4166 5206 5208 28
4167 5206 5209 28
4168 5206 5210 28
4169 5211 5212 28
4170 5211 5213 28
4171 5211 5214 28
4172 5211 5215 28
4173 5216 5217 28
4174 5216 5218 28
4175 5216 5219 28
4176 5216 5220 28
4177 5221 5222 28
4178 5221 5223 28
4179 5221 5224 28
4180 5221 5225 28
4181 5226 5227 28
4182 5226 5228 28
4183 5226 5229 28
4184 5226 5230 28
4185 5231 5232 28
4186 5231 5233 28
4187 5231 5234 28
4188 5231 5235 28
4189 5236 5237 28
4190 5236 5238 28
4191 5236 5239 28
4192 5236 5240 28
4193 5241 5242 28
4194 5241 5243 28
4195 5241 5244 28
4196 5241 5245 28
4197 5246 5247 28
4198 5246 5248 28
4199 5246 5249 28
4200 5246 5250 28
4201 5251 5252 28
4202 5251 5253 28
4203 5251 5254 28
4204 5251 5255 28
4205 5256 5257 28
4206 5256 5258 28
4207 5256 5259 28
4208 5256 5260 28
4209 5261 5262 28
4210 5261 5263 28
4211 5261 5264 28
4212 5261 5265 28
4213 5266 5267 28
4214 5266 5268 28
4215 5266 5269 28
4216 5266 5270 28
4217 5271 5272 28
4218 5271 5273 28
4219 5271 5274 28
4220 5271 5275 28
4221 5276 5277 28
4222 5276 5278 28
4223 5276 5279 28
4224 5276 5280 28
4225 5281 5282 28
4226 5281 5283 28
4227 5281 5284 28
4228 5281 5285 28
4229 5286 5287 28
4230 5286 5288 28
4231 5286 5289 28
4232 5286 5290 28
4233 5291 5292 28
4234 5291 5293 28
4235 5291 5294 28
4236 5291 5295 28
4237 5296 5297 28
4238 5296 5298 28
4239 5296 5299 28
4240 5296 5300 28
4241 5301 5302 28
4242 5301 5303 28
4243 5301 5304 28
4244 5301 5305 28
4245 5306 5307 28
4246 5306 5308 28
4247 5306 5309 28
4248 5306 5310 28
4249 5311 5312 28
4250 5311 5313 28
4251 5311 5314 28
4252 5311 5315 28
4253 5316 5317 28
4254 5316 5318 28
4255 5316 5319 28
4256 5316 5320 28
4257 5321 5322 28
4258 5321 5323 28
4259 5321 5324 28
4260 5321 5325 28
4261 5326 5327 28
4262 5326 5328 28
4263 5326 5329 28
4264 5326 5330 28
4265 5331 5332 28
4266 5331 5333 28
4267 5331 5334 28
4268 5331 5335 28
4269 5336 5337 28
4270 5336 5338 28
4271 5336 5339 28
4272 5336 5340 28
4273 5341 5342 28
4274 5341 5343 28
4275 5341 5344 28
4276 5341 5345 28
4277 5346 5347 28
4278 5346 5348 28
4279 5346 5349 28
4280 5346 5350 28
4281 5351 5352 28
4282 5351 5353 28
4283 5351 5354 28
4284 5351 5355 28
4285 5356 5357 28
4286 5356 5358 28
4287 5356 5359 28
4288 5356 5360 28
4289 5361 5362 28
4290 5361 5363 28
4291 5361 5364 28
4292 5361 5365 28
4293 5366 5367 28
4294 5366 5368 28
4295 5366 5369 28
4296 5366 5370 28
4297 5371 5372 28
4298 5371 5373 28
4299 5371 5374 28
4300 5371 5375 28
4301 5376 5377 28
4302 5376 5378 28
4303 5376 5379 28
4304 5376 5380 28
4305 5381 5382 28
4306 5381 5383 28
4307 5381 5384 28
4308 5381 5385 28
4309 5386 5387 28
4310 5386 5388 28
4311 5386 5389 28
4312 5386 5390 28
4313 5391 5392 28
4314 5391 5393 28
4315 5391 5394 28
4316 5391 5395 28
4317 5396 5397 28
4318 5396 5398 28
4319 5396 5399 28
4320 5396 5400 28
4321 5401 5402 28
4322 5401 5403 28
4323 5401 5404 28
4324 5401 5405 28
4325 5406 5407 28
4326 5406 5408 28
4327 5406 5409 28
4328 5406 5410 28
4329 5411 5412 28
4330 5411 5413 28
4331 5411 5414 28
4332 5411 5415 28
4333 5416 5417 28
4334 5416 5418 28
4335 5416 5419 28
4336 5416 5420 28
4337 5421 5422 28
4338 5421 5423 28
4339 5421 5424 28
4340 5421 5425 28
4341 5426 5427 28
4342 5426 5428 28
4343 5426 5429 28
4344 5426 5430 28
4345 5431 5432 28
4346 5431 5433 28
4347 5431 5434 28
4348 5431 5435 28
4349 5436 5437 28
4350 5436 5438 28
4351 5436 5439 28
4352 5436 5440 28
4353 5441 5442 28
4354 5441 5443 28
4355 5441 5444 28
4356 5441 5445 28
4357 5446 5447 28
4358 5446 5448 28
4359 5446 5449 28
4360 5446 5450 28
4361 5451 5452 28
4362 5451 5453 28
4363 5451 5454 28
4364 5451 5455 28
4365 5456 5457 28
4366 5456 5458 28
4367 5456 5459 28
4368 5456 5460 28
4369 5461 5462 28
4370 5461 5463 28
4371 5461 5464 28
4372 5461 5465 28
4373 5466 5467 28
4374 5466 5468 28
4375 5466 5469 28
4376 5466 5470 28
4377 5471 5472 28
4378 5471 5473 28
4379 5471 5474 28
4380 5471 5475 28
4381 5476 5477 28
4382 5476 5478 28
4383 5476 5479 28
4384 5476 5480 28
4385 5481 5482 28
4386 5481 5483 28
4387 5481 5484 28
4388 5481 5485 28
4389 5486 5487 28
4390 5486 5488 28
4391 5486 5489 28
4392 5486 5490 28
4393 5491 5492 28
4394 5491 5493 28
4395 5491 5494 28
4396 5491 5495 28
4397 5496 5497 28
4398 5496 5498 28
4399 5496 5499 28
4400 5496 5500 28
4401 5501 5502 28
4402 5501 5503 28
4403 5501 5504 28
4404 5501 5505 28
4405 5506 5507 28
4406 5506 5508 28
4407 5506 5509 28
4408 5506 5510 28
4409 5511 5512 28
4410 5511 5513 28
4411 5511 5514 28
4412 5511 5515 28
4413 5516 5517 28
4414 5516 5518 28
4415 5516 5519 28
4416 5516 5520 28
4417 5521 5522 28
4418 5521 5523 28
4419 5521 5524 28
4420 5521 5525 28
4421 5526 5527 28
4422 5526 5528 28
4423 5526 5529 28
4424 5526 5530 28
4425 5531 5532 28
4426 5531 5533 28
4427 5531 5534 28
4428 5531 5535 28
4429 5536 5537 28
4430 5536 5538 28
4431 5536 5539 28
4432 5536 5540 28
4433 5541 5542 28
4434 5541 5543 28
4435 5541 5544 28
4436 5541 5545 28
4437 5546 5547 28
4438 5546 5548 28
4439 5546 5549 28
4440 5546 5550 28
4441 5551 5552 28
4442 5551 5553 28
4443 5551 5554 28
4444 5551 5555 28
4445 5556 5557 28
4446 5556 5558 28
4447 5556 5559 28
4448 5556 5560 28
4449 5561 5562 28
4450 5561 5563 28
4451 5561 5564 28
4452 5561 5565 28
4453 5566 5567 28
4454 5566 5568 28
4455 5566 5569 28
4456 5566 5570 28
4457 5571 5572 28
4458 5571 5573 28
4459 5571 5574 28
4460 5571 5575 28
4461 5576 5577 28
4462 5576 5578 28
4463 5576 5579 28
4464 5576 5580 28
4465 5581 5582 28
4466 5581 5583 28
4467 5581 5584 28
4468 5581 5585 28
4469 5586 5587 28
4470 5586 5588 28
4471 5586 5589 28
4472 5586 5590 28
4473 5591 5592 28
4474 5591 5593 28
4475 5591 5594 28
4476 5591 5595 28
4477 5596 5597 28
4478 5596 5598 28
4479 5596 5599 28
4480 5596 5600 28
4481 5601 5602 28
4482 5601 5603 28
4483 5601 5604 28
4484 5601 5605 28
4485 5606 5607 28
4486 5606 5608 28
4487 5606 5609 28
4488 5606 5610 28
4489 5611 5612 28
4490 5611 5613 28
4491 5611 5614 28
4492 5611 5615 28
4493 5616 5617 28
4494 5616 5618 28
4495 5616 5619 28
4496 5616 5620 28
4497 5621 5622 28
4498 5621 5623 28
4499 5621 5624 28
4500 5621 5625 28
4501 5626 5627 28
4502 5626 5628 28
4503 5626 5629 28
4504 5626 5630 28
4505 5631 5632 28
4506 5631 5633 28
4507 5631 5634 28
4508 5631 5635 28
4509 5636 5637 28
4510 5636 5638 28
4511 5636 5639 28
4512 5636 5640 28
4513 5641 5642 28
4514 5641 5643 28
4515 5641 5644 28
4516 5641 5645 28
4517 5646 5647 28
4518 5646 5648 28
4519 5646 5649 28
4520 5646 5650 28
4521 5651 5652 28
4522 5651 5653 28
4523 5651 5654 28
4524 5651 5655 28
4525 5656 5657 28
4526 5656 5658 28
4527 5656 5659 28
4528 5656 5660 28
4529 5661 5662 28
4530 5661 5663 28
4531 5661 5664 28
4532 5661 5665 28
4533 5666 5667 28
4534 5666 5668 28
4535 5666 5669 28
4536 5666 5670 28
4537 5671 5672 28
4538 5671 5673 28
4539 5671 5674 28
4540 5671 5675 28
4541 5676 5677 28
4542 5676 5678 28
4543 5676 5679 28
4544 5676 5680 28
4545 5681 5682 28
4546 5681 5683 28
4547 5681 5684 28
4548 5681 5685 28
4549 5686 5687 28
4550 5686 5688 28
4551 5686 5689 28
4552 5686 5690 28
4553 5691 5692 28
4554 5691 5693 28
4555 5691 5694 28
4556 5691 5695 28
4557 5696 5697 28
4558 5696 5698 28
4559 5696 5699 28
4560 5696 5700 28
4561 5701 5702 28
4562 5701 5703 28
4563 5701 5704 28
4564 5701 5705 28
4565 5706 5707 28
4566 5706 5708 28
4567 5706 5709 28
4568 5706 5710 28
4569 5711 5712 28
4570 5711 5713 28
4571 5711 5714 28
4572 5711 5715 28
4573 5716 5717 28
4574 5716 5718 28
4575 5716 5719 28
4576 5716 5720 28
4577 5721 5722 28
4578 5721 5723 28
4579 5721 5724 28
4580 5721 5725 28
4581 5726 5727 28
4582 5726 5728 28
4583 5726 5729 28
4584 5726 5730 28
4585 5731 5732 28
4586 5731 5733 28
4587 5731 5734 28
4588 5731 5735 28
4589 5736 5737 28
4590 5736 5738 28
4591 5736 5739 28
4592 5736 5740 28
4593 5741 5742 28
4594 5741 5743 28
4595 5741 5744 28
4596 5741 5745 28
4597 5746 5747 28
4598 5746 5748 28
4599 5746 5749 28
4600 5746 5750 28
4601 5751 5752 28
4602 5751 5753 28
4603 5751 5754 28
4604 5751 5755 28
4605 5756 5757 28
4606 5756 5758 28
4607 5756 5759 28
4608 5756 5760 28
4609 5761 5762 28
4610 5761 5763 28
4611 5761 5764 28
4612 5761 5765 28
4613 5766 5767 28
4614 5766 5768 28
4615 5766 5769 28
4616 5766 5770 28
4617 5771 5772 28
4618 5771 5773 28
4619 5771 5774 28
4620 5771 5775 28
4621 5776 5777 28
4622 5776 5778 28
4623 5776 5779 28
4624 5776 5780 28
4625 5781 5782 28
4626 5781 5783 28
4627 5781 5784 28
4628 5781 5785 28
4629 5786 5787 28
4630 5786 5788 28
4631 5786 5789 28
4632 5786 5790 28
4633 5791 5792 28
4634 5791 5793 28
4635 5791 5794 28
4636 5791 5795 28
4637 5796 5797 28
4638 5796 5798 28
4639 5796 5799 28
4640 5796 5800 28
4641 5801 5802 28
4642 5801 5803 28
4643 5801 5804 28
4644 5801 5805 28
4645 5806 5807 28
4646 5806 5808 28
4647 5806 5809 28
4648 5806 5810 28
4649 5811 5812 28
4650 5811 5813 28
4651 5811 5814 28
4652 5811 5815 28
4653 5816 5817 28
4654 5816 5818 28
4655 5816 5819 28
4656 5816 5820 28
4657 5821 5822 28
4658 5821 5823 28
4659 5821 5824 28
4660 5821 5825 28
4661 5826 5827 28
4662 5826 5828 28
4663 5826 5829 28
4664 5826 5830 28
4665 5831 5832 28
4666 5831 5833 28
4667 5831 5834 28
4668 5831 5835 28
4669 5836 5837 28
4670 5836 5838 28
4671 5836 5839 28
4672 5836 5840 28
4673 5841 5842 28
4674 5841 5843 28
4675 5841 5844 28
4676 5841 5845 28
4677 5846 5847 28
4678 5846 5848 28
4679 5846 5849 28
4680 5846 5850 28
4681 5851 5852 28
4682 5851 5853 28
4683 5851 5854 28
4684 5851 5855 28
4685 5856 5857 28
4686 5856 5858 28
4687 5856 5859 28
4688 5856 5860 28
4689 5861 5862 28
4690 5861 5863 28
4691 5861 5864 28
4692 5861 5865 28
4693 5866 5867 28
4694 5866 5868 28
4695 5866 5869 28
4696 5866 5870 28
4697 5871 5872 28
4698 5871 5873 28
4699 5871 5874 28
4700 5871 5875 28
4701 5876 5877 28
4702 5876 5878 28
4703 5876 5879 28
4704 5876 5880 28
4705 5881 5882 28
4706 5881 5883 28
4707 5881 5884 28
4708 5881 5885 28
4709 5886 5887 28
4710 5886 5888 28
4711 5886 5889 28
4712 5886 5890 28
4713 5891 5892 28
4714 5891 5893 28
4715 5891 5894 28
4716 5891 5895 28
4717 5896 5897 28
4718 5896 5898 28
4719 5896 5899 28
4720 5896 5900 28
4721 5901 5902 28
4722 5901 5903 28
4723 5901 5904 28
4724 5901 5905 28
4725 5906 5907 28
4726 5906 5908 28
4727 5906 5909 28
4728 5906 5910 28
4729 5911 5912 28
4730 5911 5913 28
4731 5911 5914 28
4732 5911 5915 28
4733 5916 5917 28
4734 5916 5918 28
4735 5916 5919 28
4736 5916 5920 28
4737 5921 5922 28
4738 5921 5923 28
4739 5921 5924 28
4740 5921 5925 28
4741 5926 5927 28
4742 5926 5928 28
4743 5926 5929 28
4744 5926 5930 28
4745 5931 5932 28
4746 5931 5933 28
4747 5931 5934 28
4748 5931 5935 28
4749 5936 5937 28
4750 5936 5938 28
4751 5936 5939 28
4752 5936 5940 28
4753 5941 5942 28
4754 5941 5943 28
4755 5941 5944 28
4756 5941 5945 28
4757 5946 5947 28
4758 5946 5948 28
4759 5946 5949 28
4760 5946 5950 28
4761 5951 5952 28
4762 5951 5953 28
4763 5951 5954 28
4764 5951 5955 28
4765 5956 5957 28
4766 5956 5958 28
4767 5956 5959 28
4768 5956 5960 28
4769 5961 5962 28
4770 5961 5963 28
4771 5961 5964 28
4772 5961 5965 28
4773 5966 5967 28
4774 5966 5968 28
4775 5966 5969 28
4776 5966 5970 28
4777 5971 5972 28
4778 5971 5973 28
4779 5971 5974 28
4780 5971 5975 28
4781 5976 5977 28
4782 5976 5978 28
4783 5976 5979 28
4784 5976 5980 28
4785 5981 5982 28
4786 5981 5983 28
4787 5981 5984 28
4788 5981 5985 28
4789 5986 5987 28
4790 5986 5988 28
4791 5986 5989 28
4792 5986 5990 28
4793 5991 5992 28
4794 5991 5993 28
4795 5991 5994 28
4796 5991 5995 28
4797 5996 5997 28
4798 5996 5998 28
4799 5996 5999 28
4800 5996 6000 28
4801 6001 6002 28
4802 6001 6003 28
4803 6001 6004 28
4804 6001 6005 28
4805 6006 6007 28
4806 6006 6008 28
4807 6006 6009 28
4808 6006 6010 28
4809 6011 6012 28
4810 6011 6013 28
4811 6011 6014 28
4812 6011 6015 28
4813 6016 6017 28
4814 6016 6018 28
4815 6016 6019 28
4816 6016 6020 28
4817 6021 6022 28
4818 6021 6023 28
4819 6021 6024 28
4820 6021 6025 28
4821 6026 6027 28
4822 6026 6028 28
4823 6026 6029 28
4824 6026 6030 28
4825 6031 6032 28
4826 6031 6033 28
4827 6031 6034 28
4828 6031 6035 28
4829 6036 6037 28
4830 6036 6038 28
4831 6036 6039 28
4832 6036 6040 28
4833 6041 6042 28
4834 6041 6043 28
4835 6041 6044 28
4836 6041 6045 28
4837 6046 6047 28
4838 6046 6048 28
4839 6046 6049 28
4840 6046 6050 28
4841 6051 6052 28
4842 6051 6053 28
4843 6051 6054 28
4844 6051 6055 28
4845 6056 6057 28
4846 6056 6058 28
4847 6056 6059 28
4848 6056 6060 28
4849 6061 6062 28
4850 6061 6063 28
4851 6061 6064 28
4852 6061 6065 28
4853 6066 6067 28
4854 6066 6068 28
4855 6066 6069 28
4856 6066 6070 28
4857 6071 6072 28
4858 6071 6073 28
4859 6071 6074 28
4860 6071 6075 28
4861 6076 6077 28
4862 6076 6078 28
4863 6076 6079 28
4864 6076 6080 28
4865 6081 6082 28
4866 6081 6083 28
4867 6081 6084 28
4868 6081 6085 28
4869 6086 6087 28
4870 6086 6088 28
4871 6086 6089 28
4872 6086 6090 28
4873 6091 6092 28
4874 6091 6093 28
4875 6091 6094 28
4876 6091 6095 28
4877 6096 6097 28
4878 6096 6098 28
4879 6096 6099 28
4880 6096 6100 28
4881 6101 6102 28
4882 6101 6103 28
4883 6101 6104 28
4884 6101 6105 28
4885 6106 6107 28
4886 6106 6108 28
4887 6106 6109 28
4888 6106 6110 28
4889 6111 6112 28
4890 6111 6113 28
4891 6111 6114 28
4892 6111 6115 28
4893 6116 6117 28
4894 6116 6118 28
4895 6116 6119 28
4896 6116 6120 28
4897 6121 6122 28
4898 6121 6123 28
4899 6121 6124 28
4900 6121 6125 28
4901 6126 6127 28
4902 6126 6128 28
4903 6126 6129 28
4904 6126 6130 28
4905 6131 6132 28
4906 6131 6133 28
4907 6131 6134 28
4908 6131 6135 28
4909 6136 6137 28
4910 6136 6138 28
4911 6136 6139 28
4912 6136 6140 28
4913 6141 6142 28
4914 6141 6143 28
4915 6141 6144 28
4916 6141 6145 28
4917 6146 6147 28
4918 6146 6148 28
4919 6146 6149 28
4920 6146 6150 28
4921 6151 6152 28
4922 6151 6153 28
4923 6151 6154 28
4924 6151 6155 28
4925 6156 6157 28
4926 6156 6158 28
4927 6156 6159 28
4928 6156 6160 28
4929 6161 6162 28
4930 6161 6163 28
4931 6161 6164 28
4932 6161 6165 28
4933 6166 6167 28
4934 6166 6168 28
4935 6166 6169 28
4936 6166 6170 28
4937 6171 6172 28
4938 6171 6173 28
4939 6171 6174 28
4940 6171 6175 28
4941 6176 6177 28
4942 6176 6178 28
4943 6176 6179 28
4944 6176 6180 28
4945 6181 6182 28
4946 6181 6183 28
4947 6181 6184 28
4948 6181 6185 28
4949 6186 6187 28
4950 6186 6188 28
4951 6186 6189 28
4952 6186 6190 28
4953 6191 6192 28
4954 6191 6193 28
4955 6191 6194 28
4956 6191 6195 28
4957 6196 6197 28
4958 6196 6198 28
4959 6196 6199 28
4960 6196 6200 28
4961 6201 6202 28
4962 6201 6203 28
4963 6201 6204 28
4964 6201 6205 28
4965 6206 6207 28
4966 6206 6208 28
4967 6206 6209 28
4968 6206 6210 28
4969 6211 6212 28
4970 6211 6213 28
4971 6211 6214 28
4972 6211 6215 28
4973 6216 6217 28
4974 6216 6218 28
4975 6216 6219 28
4976 6216 6220 28
4977 6221 6222 28
4978 6221 6223 28
4979 6221 6224 28
4980 6221 6225 28
4981 6226 6227 28
4982 6226 6228 28
4983 6226 6229 28
4984 6226 6230 28
4985 6231 6232 28
4986 6231 6233 28
4987 6231 6234 28
4988 6231 6235 28
4989 6236 6237 28
4990 6236 6238 28
4991 6236 6239 28
4992 6236 6240 28
4993 6241 6242 28
4994 6241 6243 28
4995 6241 6244 28
4996 6241 6245 28
4997 6246 6247 28
4998 6246 6248 28
4999 6246 6249 28
5000 6246 6250 28
5001 6251 6252 28
5002 6251 6253 28
5003 6251 6254 28
5004 6251 6255 28
5005 6256 6257 28
5006 6256 6258 28
5007 6256 6259 28
5008 6256 6260 28
5009 6261 6262 28
5010 6261 6263 28
5011 6261 6264 28
5012 6261 6265 28
5013 6266 6267 28
5014 6266 6268 28
5015 6266 6269 28
5016 6266 6270 28
5017 6271 6272 28
5018 6271 6273 28
5019 6271 6274 28
5020 6271 6275 28
5021 6276 6277 28
5022 6276 6278 28
5023 6276 6279 28
5024 6276 6280 28
5025 6281 6282 28
5026 6281 6283 28
5027 6281 6284 28
5028 6281 6285 28
5029 6286 6287 28
5030 6286 6288 28
5031 6286 6289 28
5032 6286 6290 28
5033 6291 6292 28
5034 6291 6293 28
5035 6291 6294 28
5036 6291 6295 28
5037 6296 6297 28
5038 6296 6298 28
5039 6296 6299 28
5040 6296 6300 28
5041 6301 6302 28
5042 6301 6303 28
5043 6301 6304 28
5044 6301 6305 28
5045 6306 6307 28
5046 6306 6308 28
5047 6306 6309 28
5048 6306 6310 28
5049 6311 6312 28
5050 6311 6313 28
5051 6311 6314 28
5052 6311 6315 28
5053 6316 6317 28
5054 6316 6318 28
5055 6316 6319 28
5056 6316 6320 28
5057 6321 6322 28
5058 6321 6323 28
5059 6321 6324 28
5060 6321 6325 28
5061 6326 6327 28
5062 6326 6328 28
5063 6326 6329 28
5064 6326 6330 28
5065 6331 6332 28
5066 6331 6333 28
5067 6331 6334 28
5068 6331 6335 28
5069 6336 6337 28
5070 6336 6338 28
5071 6336 6339 28
5072 6336 6340 28
5073 6341 6342 28
5074 6341 6343 28
5075 6341 6344 28
5076 6341 6345 28
5077 6346 6347 28
5078 6346 6348 28
5079 6346 6349 28
5080 6346 6350 28
5081 6351 6352 28
5082 6351 6353 28
5083 6351 6354 28
5084 6351 6355 28
5085 6356 6357 28
5086 6356 6358 28
5087 6356 6359 28
5088 6356 6360 28
5089 6361 6362 28
5090 6361 6363 28
5091 6361 6364 28
5092 6361 6365 28
5093 6366 6367 28
5094 6366 6368 28
5095 6366 6369 28
5096 6366 6370 28
5097 6371 6372 28
5098 6371 6373 28
5099 6371 6374 28
5100 6371 6375 28
5101 6376 6377 28
5102 6376 6378 28
5103 6376 6379 28
5104 6376 6380 28
5105 6381 6382 28
5106 6381 6383 28
5107 6381 6384 28
5108 6381 6385 28
5109 6386 6387 28
5110 6386 6388 28
5111 6386 6389 28
5112 6386 6390 28
5113 6391 6392 28
5114 6391 6393 28
5115 6391 6394 28
5116 6391 6395 28
5117 6396 6397 28
5118 6396 6398 28
5119 6396 6399 28
5120 6396 6400 28
5121 6401 6402 28
5122 6401 6403 28
5123 6401 6404 28
5124 6401 6405 28
5125 6406 6407 28
5126 6406 6408 28
5127 6406 6409 28
5128 6406 6410 28
5129 6411 6412 28
5130 6411 6413 28
5131 6411 6414 28
5132 6411 6415 28
5133 6416 6417 28
5134 6416 6418 28
5135 6416 6419 28
5136 6416 6420 28
5137 6421 6422 28
5138 6421 6423 28
5139 6421 6424 28
5140 6421 6425 28
5141 6426 6427 28
5142 6426 6428 28
5143 6426 6429 28
5144 6426 6430 28
5145 6431 6432 28
5146 6431 6433 28
5147 6431 6434 28
5148 6431 6435 28
5149 6436 6437 28
5150 6436 6438 28
5151 6436 6439 28
5152 6436 6440 28
5153 6441 6442 28
5154 6441 6443 28
5155 6441 6444 28
5156 6441 6445 28
5157 6446 6447 28
5158 6446 6448 28
5159 6446 6449 28
5160 6446 6450 28
5161 6451 6452 28
5162 6451 6453 28
5163 6451 6454 28
5164 6451 6455 28
5165 6456 6457 28
5166 6456 6458 28
5167 6456 6459 28
5168 6456 6460 28
5169 6461 6462 28
5170 6461 6463 28
5171 6461 6464 28
5172 6461 6465 28
5173 6466 6467 28
5174 6466 6468 28
5175 6466 6469 28
5176 6466 6470 28
5177 6471 6472 28
5178 6471 6473 28
5179 6471 6474 28
5180 6471 6475 28
5181 6476 6477 28
5182 6476 6478 28
5183 6476 6479 28
5184 6476 6480 28
5185 6481 6482 28
5186 6481 6483 28
5187 6481 6484 28
5188 6481 6485 28
5189 6486 6487 28
5190 6486 6488 28
5191 6486 6489 28
5192 6486 6490 28
5193 6491 6492 28
5194 6491 6493 28
5195 6491 6494 28
5196 6491 6495 28
5197 6496 6497 28
5198 6496 6498 28
5199 6496 6499 28
5200 6496 6500 28
5201 6501 6502 28
5202 6501 6503 28
5203 6501 6504 28
5204 6501 6505 28
5205 6506 6507 28
5206 6506 6508 28
5207 6506 6509 28
5208 6506 6510 28
5209 6511 6512 28
5210 6511 6513 28
5211 6511 6514 28
5212 6511 6515 28
5213 6516 6517 28
5214 6516 6518 28
5215 6516 6519 28
5216 6516 6520 28
5217 6521 6522 28
5218 6521 6523 28
5219 6521 6524 28
5220 6521 6525 28
5221 6526 6527 28
5222 6526 6528 28
5223 6526 6529 28
5224 6526 6530 28
5225 6531 6532 28
5226 6531 6533 28
5227 6531 6534 28
5228 6531 6535 28
5229 6536 6537 28
5230 6536 6538 28
5231 6536 6539 28
5232 6536 6540 28
5233 6541 6542 28
5234 6541 6543 28
5235 6541 6544 28
5236 6541 6545 28
5237 6546 6547 28
5238 6546 6548 28
5239 6546 6549 28
5240 6546 6550 28
5241 6551 6552 28
5242 6551 6553 28
5243 6551 6554 28
5244 6551 6555 28
5245 6556 6557 28
5246 6556 6558 28
5247 6556 6559 28
5248 6556 6560 28
5249 6561 6562 28
5250 6561 6563 28
5251 6561 6564 28
5252 6561 6565 28
5253 6566 6567 28
5254 6566 6568 28
5255 6566 6569 28
5256 6566 6570 28
5257 6571 6572 28
5258 6571 6573 28
5259 6571 6574 28
5260 6571 6575 28
5261 6576 6577 28
5262 6576 6578 28
5263 6576 6579 28
5264 6576 6580 28
5265 6581 6582 28
5266 6581 6583 28
5267 6581 6584 28
5268 6581 6585 28
5269 6586 6587 28
5270 6586 6588 28
5271 6586 6589 28
5272 6586 6590 28
5273 6591 6592 28
5274 6591 6593 28
5275 6591 6594 28
5276 6591 6595 28
5277 6596 6597 28
5278 6596 6598 28
5279 6596 6599 28
5280 6596 6600 28
5281 6601 6602 28
5282 6601 6603 28
5283 6601 6604 28
5284 6601 6605 28
5285 6606 6607 28
5286 6606 6608 28
5287 6606 6609 28
5288 6606 6610 28
5289 6611 6612 28
5290 6611 6613 28
5291 6611 6614 28
5292 6611 6615 28
5293 6616 6617 28
5294 6616 6618 28
5295 6616 6619 28
5296 6616 6620 28
5297 6621 6622 28
5298 6621 6623 28
5299 6621 6624 28
5300 6621 6625 28
5301 6626 6627 28
5302 6626 6628 28
5303 6626 6629 28
5304 6626 6630 28
5305 6631 6632 28
5306 6631 6633 28
5307 6631 6634 28
5308 6631 6635 28
5309 6636 6637 28
5310 6636 6638 28
5311 6636 6639 28
5312 6636 6640 28
5313 6641 6642 28
5314 6641 6643 28
5315 6641 6644 28
5316 6641 6645 28
5317 6646 6647 28
5318 6646 6648 28
5319 6646 6649 28
5320 6646 6650 28
5321 6651 6652 28
5322 6651 6653 28
5323 6651 6654 28
5324 6651 6655 28
5325 6656 6657 28
5326 6656 6658 28
5327 6656 6659 28
5328 6656 6660 28
5329 6661 6662 28
5330 6661 6663 28
5331 6661 6664 28
5332 6661 6665 28
5333 6666 6667 28
5334 6666 6668 28
5335 6666 6669 28
5336 6666 6670 28
5337 6671 6672 28
5338 6671 6673 28
5339 6671 6674 28
5340 6671 6675 28
5341 6676 6677 28
5342 6676 6678 28
5343 6676 6679 28
5344 6676 6680 28
5345 6681 6682 28
5346 6681 6683 28
5347 6681 6684 28
5348 6681 6685 28
5349 6686 6687 28
5350 6686 6688 28
5351 6686 6689 28
5352 6686 6690 28
5353 6691 6692 28
5354 6691 6693 28
5355 6691 6694 28
5356 6691 6695 28
5357 6696 6697 28
5358 6696 6698 28
5359 6696 6699 28
5360 6696 6700 28
5361 6701 6702 28
5362 6701 6703 28
5363 6701 6704 28
5364 6701 6705 28
5365 6706 6707 28
5366 6706 6708 28
5367 6706 6709 28
5368 6706 6710 28
5369 6711 6712 28
5370 6711 6713 28
5371 6711 6714 28
5372 6711 6715 28
5373 6716 6717 28
5374 6716 6718 28
5375 6716 6719 28
5376 6716 6720 28
5377 6721 6722 28
5378 6721 6723 28
5379 6721 6724 28
5380 6721 6725 28
5381 6726 6727 28
5382 6726 6728 28
5383 6726 6729 28
5384 6726 6730 28
5385 6731 6732 28
5386 6731 6733 28
5387 6731 6734 28
5388 6731 6735 28
5389 6736 6737 28
5390 6736 6738 28
5391 6736 6739 28
5392 6736 6740 28
5393 6741 6742 28
5394 6741 6743 28
5395 6741 6744 28
5396 6741 6745 28
5397 6746 6747 28
5398 6746 6748 28
5399 6746 6749 28
5400 6746 6750 28
5401 6751 6752 28
5402 6751 6753 28
5403 6751 6754 28
5404 6751 6755 28
5405 6756 6757 28
5406 6756 6758 28
5407 6756 6759 28
5408 6756 6760 28
5409 6761 6762 28
5410 6761 6763 28
5411 6761 6764 28
5412 6761 6765 28
5413 6766 6767 28
5414 6766 6768 28
5415 6766 6769 28
5416 6766 6770 28
5417 6771 6772 28
5418 6771 6773 28
5419 6771 6774 28
5420 6771 6775 28
5421 6776 6777 28
5422 6776 6778 28
5423 6776 6779 28
5424 6776 6780 28
5425 6781 6782 28
5426 6781 6783 28
5427 6781 6784 28
5428 6781 6785 28
5429 6786 6787 28
5430 6786 6788 28
5431 6786 6789 28
5432 6786 6790 28
5433 6791 6792 28
5434 6791 6793 28
5435 6791 6794 28
5436 6791 6795 28
5437 6796 6797 28
5438 6796 6798 28
5439 6796 6799 28
5440 6796 6800 28
5441 6801 6802 28
5442 6801 6803 28
5443 6801 6804 28
5444 6801 6805 28
5445 6806 6807 28
5446 6806 6808 28
5447 6806 6809 28
5448 6806 6810 28
5449 6811 6812 28
5450 6811 6813 28
5451 6811 6814 28
5452 6811 6815 28
5453 6816 6817 28
5454 6816 6818 28
5455 6816 6819 28
5456 6816 6820 28
5457 6821 6822 28
5458 6821 6823 28
5459 6821 6824 28
5460 6821 6825 28
5461 6826 6827 28
5462 6826 6828 28
5463 6826 6829 28
5464 6826 6830 28
5465 6831 6832 28
5466 6831 6833 28
5467 6831 6834 28
5468 6831 6835 28
5469 6836 6837 28
5470 6836 6838 28
5471 6836 6839 28
5472 6836 6840 28
5473 6841 6842 28
5474 6841 6843 28
5475 6841 6844 28
5476 6841 6845 28
5477 6846 6847 28
5478 6846 6848 28
5479 6846 6849 28
5480 6846 6850 28
5481 6851 6852 28
5482 6851 6853 28
5483 6851 6854 28
5484 6851 6855 28
5485 6856 6857 28
5486 6856 6858 28
5487 6856 6859 28
5488 6856 6860 28
5489 6861 6862 28
5490 6861 6863 28
5491 6861 6864 28
5492 6861 6865 28
5493 6866 6867 28
5494 6866 6868 28
5495 6866 6869 28
5496 6866 6870 28
5497 6871 6872 28
5498 6871 6873 28
5499 6871 6874 28
5500 6871 6875 28
5501 6876 6877 28
5502 6876 6878 28
5503 6876 6879 28
5504 6876 6880 28
5505 6881 6882 28
5506 6881 6883 28
5507 6881 6884 28
5508 6881 6885 28
5509 6886 6887 28
5510 6886 6888 28
5511 6886 6889 28
5512 6886 6890 28
5513 6891 6892 28
5514 6891 6893 28
5515 6891 6894 28
5516 6891 6895 28
5517 6896 6897 28
5518 6896 6898 28
5519 6896 6899 28
5520 6896 6900 28
5521 6901 6902 28
5522 6901 6903 28
5523 6901 6904 28
5524 6901 6905 28
5525 6906 6907 28
5526 6906 6908 28
5527 6906 6909 28
5528 6906 6910 28
5529 6911 6912 28
5530 6911 6913 28
5531 6911 6914 28
5532 6911 6915 28
5533 6916 6917 28
5534 6916 6918 28
5535 6916 6919 28
5536 6916 6920 28
5537 6921 6922 28
5538 6921 6923 28
5539 6921 6924 28
5540 6921 6925 28
5541 6926 6927 28
5542 6926 6928 28
5543 6926 6929 28
5544 6926 6930 28
5545 6931 6932 28
5546 6931 6933 28
5547 6931 6934 28
5548 6931 6935 28
5549 6936 6937 28
5550 6936 6938 28
5551 6936 6939 28
5552 6936 6940 28
5553 6941 6942 28
5554 6941 6943 28
5555 6941 6944 28
5556 6941 6945 28
5557 6946 6947 28
5558 6946 6948 28
5559 6946 6949 28
5560 6946 6950 28
5561 6951 6952 28
5562 6951 6953 28
5563 6951 6954 28
5564 6951 6955 28
5565 6956 6957 28
5566 6956 6958 28
5567 6956 6959 28
5568 6956 6960 28
5569 6961 6962 28
5570 6961 6963 28
5571 6961 6964 28
5572 6961 6965 28
5573 6966 6967 28
5574 6966 6968 28
5575 6966 6969 28
5576 6966 6970 28
5577 6971 6972 28
5578 6971 6973 28
5579 6971 6974 28
5580 6971 6975 28
5581 6976 6977 28
5582 6976 6978 28
5583 6976 6979 28
5584 6976 6980 28
5585 6981 6982 28
5586 6981 6983 28
5587 6981 6984 28
5588 6981 6985 28
5589 6986 6987 28
5590 6986 6988 28
5591 6986 6989 28
5592 6986 6990 28
5593 6991 6992 28
5594 6991 6993 28
5595 6991 6994 28
5596 6991 6995 28
5597 6996 6997 28
5598 6996 6998 28
5599 6996 6999 28
5600 6996 7000 28
5601 7001 7002 28
5602 7001 7003 28
5603 7001 7004 28
5604 7001 7005 28
5605 7006 7007 28
5606 7006 7008 28
5607 7006 7009 28
5608 7006 7010 28
5609 7011 7012 28
5610 7011 7013 28
5611 7011 7014 28
5612 7011 7015 28
5613 7016 7017 28
5614 7016 7018 28
5615 7016 7019 28
5616 7016 7020 28
5617 7021 7022 28
5618 7021 7023 28
5619 7021 7024 28
5620 7021 7025 28
5621 7026 7027 28
5622 7026 7028 28
5623 7026 7029 28
5624 7026 7030 28
5625 7031 7032 28
5626 7031 7033 28
5627 7031 7034 28
5628 7031 7035 28
5629 7036 7037 28
5630 7036 7038 28
5631 7036 7039 28
5632 7036 7040 28
5633 7041 7042 28
5634 7041 7043 28
5635 7041 7044 28
5636 7041 7045 28
5637 7046 7047 28
5638 7046 7048 28
5639 7046 7049 28
5640 7046 7050 28
5641 7051 7052 28
5642 7051 7053 28
5643 7051 7054 28
5644 7051 7055 28
5645 7056 7057 28
5646 7056 7058 28
5647 7056 7059 28
5648 7056 7060 28
5649 7061 7062 28
5650 7061 7063 28
5651 7061 7064 28
5652 7061 7065 28
5653 7066 7067 28
5654 7066 7068 28
5655 7066 7069 28
5656 7066 7070 28
5657 7071 7072 28
5658 7071 7073 28
5659 7071 7074 28
5660 7071 7075 28
5661 7076 7077 28
5662 7076 7078 28
5663 7076 7079 28
5664 7076 7080 28
5665 7081 7082 28
5666 7081 7083 28
5667 7081 7084 28
5668 7081 7085 28
5669 7086 7087 28
5670 7086 7088 28
5671 7086 7089 28
5672 7086 7090 28
5673 7091 7092 28
5674 7091 7093 28
5675 7091 7094 28
5676 7091 7095 28
5677 7096 7097 28
5678 7096 7098 28
5679 7096 7099 28
5680 7096 7100 28
5681 7101 7102 28
5682 7101 7103 28
5683 7101 7104 28
5684 7101 7105 28
5685 7106 7107 28
5686 7106 7108 28
5687 7106 7109 28
5688 7106 7110 28
5689 7111 7112 28
5690 7111 7113 28
5691 7111 7114 28
5692 7111 7115 28
5693 7116 7117 28
5694 7116 7118 28
5695 7116 7119 28
5696 7116 7120 28
5697 7121 7122 28
5698 7121 7123 28
5699 7121 7124 28
5700 7121 7125 28
5701 7126 7127 28
5702 7126 7128 28
5703 7126 7129 28
5704 7126 7130 28
5705 7131 7132 28
5706 7131 7133 28
5707 7131 7134 28
5708 7131 7135 28
5709 7136 7137 28
5710 7136 7138 28
5711 7136 7139 28
5712 7136 7140 28
5713 7141 7142 28
5714 7141 7143 28
5715 7141 7144 28
5716 7141 7145 28
5717 7146 7147 28
5718 7146 7148 28
5719 7146 7149 28
5720 7146 7150 28
5721 7151 7152 28
5722 7151 7153 28
5723 7151 7154 28
5724 7151 7155 28
5725 7156 7157 28
5726 7156 7158 28
5727 7156 7159 28
5728 7156 7160 28
5729 7161 7162 28
5730 7161 7163 28
5731 7161 7164 28
5732 7161 7165 28
5733 7166 7167 28
5734 7166 7168 28
5735 7166 7169 28
5736 7166 7170 28
5737 7171 7172 28
5738 7171 7173 28
5739 7171 7174 28
5740 7171 7175 28
5741 7176 7177 28
5742 7176 7178 28
5743 7176 7179 28
5744 7176 7180 28
5745 7181 7182 28
5746 7181 7183 28
5747 7181 7184 28
5748 7181 7185 28
5749 7186 7187 28
5750 7186 7188 28
5751 7186 7189 28
5752 7186 7190 28
5753 7191 7192 28
5754 7191 7193 28
5755 7191 7194 28
5756 7191 7195 28
5757 7196 7197 28
5758 7196 7198 28
5759 7196 7199 28
5760 7196 7200 28
5761 7201 7202 28
5762 7201 7203 28
5763 7201 7204 28
5764 7201 7205 28
5765 7206 7207 28
5766 7206 7208 28
5767 7206 7209 28
5768 7206 7210 28
5769 7211 7212 28
5770 7211 7213 28
5771 7211 7214 28
5772 7211 7215 28
5773 7216 7217 28
5774 7216 7218 28
5775 7216 7219 28
5776 7216 7220 28
5777 7221 7222 28
5778 7221 7223 28
5779 7221 7224 28
5780 7221 7225 28
5781 7226 7227 28
5782 7226 7228 28
5783 7226 7229 28
5784 7226 7230 28
5785 7231 7232 28
5786 7231 7233 28
5787 7231 7234 28
5788 7231 7235 28
5789 7236 7237 28
5790 7236 7238 28
5791 7236 7239 28
5792 7236 7240 28
5793 7241 7242 28
5794 7241 7243 28
5795 7241 7244 28
5796 7241 7245 28
5797 7246 7247 28
5798 7246 7248 28
5799 7246 7249 28
5800 7246 7250 28
5801 7251 7252 28
5802 7251 7253 28
5803 7251 7254 28
5804 7251 7255 28
5805 7256 7257 28
5806 7256 7258 28
5807 7256 7259 28
5808 7256 7260 28
5809 7261 7262 28
5810 7261 7263 28
5811 7261 7264 28
5812 7261 7265 28
5813 7266 7267 28
5814 7266 7268 28
5815 7266 7269 28
5816 7266 7270 28
5817 7271 7272 28
5818 7271 7273 28
5819 7271 7274 28
5820 7271 7275 28
5821 7276 7277 28
5822 7276 7278 28
5823 7276 7279 28
5824 7276 7280 28
5825 7281 7282 28
5826 7281 7283 28
5827 7281 7284 28
5828 7281 7285 28
5829 7286 7287 28
5830 7286 7288 28
5831 7286 7289 28
5832 7286 7290 28
5833 7291 7292 28
5834 7291 7293 28
5835 7291 7294 28
5836 7291 7295 28
5837 7296 7297 28
5838 7296 7298 28
5839 7296 7299 28
5840 7296 7300 28
5841 7301 7302 28
5842 7301 7303 28
5843 7301 7304 28
5844 7301 7305 28
5845 7306 7307 28
5846 7306 7308 28
5847 7306 7309 28
5848 7306 7310 28
5849 7311 7312 28
5850 7311 7313 28
5851 7311 7314 28
5852 7311 7315 28
5853 7316 7317 28
5854 7316 7318 28
5855 7316 7319 28
5856 7316 7320 28
5857 7321 7322 28
5858 7321 7323 28
5859 7321 7324 28
5860 7321 7325 28
5861 7326 7327 28
5862 7326 7328 28
5863 7326 7329 28
5864 7326 7330 28
5865 7331 7332 28
5866 7331 7333 28
5867 7331 7334 28
5868 7331 7335 28
5869 7336 7337 28
5870 7336 7338 28
5871 7336 7339 28
5872 7336 7340 28
5873 7341 7342 28
5874 7341 7343 28
5875 7341 7344 28
5876 7341 7345 28
5877 7346 7347 28
5878 7346 7348 28
5879 7346 7349 28
5880 7346 7350 28
5881 7351 7352 28
5882 7351 7353 28
5883 7351 7354 28
5884 7351 7355 28
5885 7356 7357 28
5886 7356 7358 28
5887 7356 7359 28
5888 7356 7360 28
5889 7361 7362 28
5890 7361 7363 28
5891 7361 7364 28
5892 7361 7365 28
5893 7366 7367 28
5894 7366 7368 28
5895 7366 7369 28
5896 7366 7370 28
5897 7371 7372 28
5898 7371 7373 28
5899 7371 7374 28
5900 7371 7375 28
5901 7376 7377 28
5902 7376 7378 28
5903 7376 7379 28
5904 7376 7380 28
5905 7381 7382 28
5906 7381 7383 28
5907 7381 7384 28
5908 7381 7385 28
5909 7386 7387 28
5910 7386 7388 28
5911 7386 7389 28
5912 7386 7390 28
5913 7391 7392 28
5914 7391 7393 28
5915 7391 7394 28
5916 7391 7395 28
5917 7396 7397 28
5918 7396 7398 28
5919 7396 7399 28
5920 7396 7400 28
5921 7401 7402 28
5922 7401 7403 28
5923 7401 7404 28
5924 7401 7405 28
5925 7406 7407 28
5926 7406 7408 28
5927 7406 7409 28
5928 7406 7410 28
5929 7411 7412 28
5930 7411 7413 28
5931 7411 7414 28
5932 7411 7415 28
5933 7416 7417 28
5934 7416 7418 28
5935 7416 7419 28
5936 7416 7420 28
5937 7421 7422 28
5938 7421 7423 28
5939 7421 7424 28
5940 7421 7425 28
5941 7426 7427 28
5942 7426 7428 28
5943 7426 7429 28
5944 7426 7430 28
5945 7431 7432 28
5946 7431 7433 28
5947 7431 7434 28
5948 7431 7435 28
5949 7436 7437 28
5950 7436 7438 28
5951 7436 7439 28
5952 7436 7440 28
5953 7441 7442 28
5954 7441 7443 28
5955 7441 7444 28
5956 7441 7445 28
5957 7446 7447 28
5958 7446 7448 28
5959 7446 7449 28
5960 7446 7450 28
5961 7451 7452 28
5962 7451 7453 28
5963 7451 7454 28
5964 7451 7455 28
5965 7456 7457 28
5966 7456 7458 28
5967 7456 7459 28
5968 7456 7460 28
5969 7461 7462 28
5970 7461 7463 28
5971 7461 7464 28
5972 7461 7465 28
5973 7466 7467 28
5974 7466 7468 28
5975 7466 7469 28
5976 7466 7470 28
5977 7471 7472 28
5978 7471 7473 28
5979 7471 7474 28
5980 7471 7475 28
5981 7476 7477 28
5982 7476 7478 28
5983 7476 7479 28
5984 7476 7480 28
5985 7481 7482 28
5986 7481 7483 28
5987 7481 7484 28
5988 7481 7485 28
5989 7486 7487 28
5990 7486 7488 28
5991 7486 7489 28
5992 7486 7490 28
5993 7491 7492 28
5994 7491 7493 28
5995 7491 7494 28
5996 7491 7495 28
5997 7496 7497 28
5998 7496 7498 28
5999 7496 7499 28
6000 7496 7500 28
6001 7501 7502 28
6002 7501 7503 28
6003 7501 7504 28
6004 7501 7505 28
6005 7506 7507 28
6006 7506 7508 28
6007 7506 7509 28
6008 7506 7510 28
6009 7511 7512 28
6010 7511 7513 28
6011 7511 7514 28
6012 7511 7515 28
6013 7516 7517 28
6014 7516 7518 28
6015 7516 7519 28
6016 7516 7520 28
6017 7521 7522 28
6018 7521 7523 28
6019 7521 7524 28
6020 7521 7525 28
6021 7526 7527 28
6022 7526 7528 28
6023 7526 7529 28
6024 7526 7530 28
6025 7531 7532 28
6026 7531 7533 28
6027 7531 7534 28
6028 7531 7535 28
6029 7536 7537 28
6030 7536 7538 28
6031 7536 7539 28
6032 7536 7540 28
6033 7541 7542 28
6034 7541 7543 28
6035 7541 7544 28
6036 7541 7545 28
6037 7546 7547 28
6038 7546 7548 28
6039 7546 7549 28
6040 7546 7550 28
6041 7551 7552 28
6042 7551 7553 28
6043 7551 7554 28
6044 7551 7555 28
6045 7556 7557 28
6046 7556 7558 28
6047 7556 7559 28
6048 7556 7560 28
6049 7561 7562 28
6050 7561 7563 28
6051 7561 7564 28
6052 7561 7565 28
6053 7566 7567 28
6054 7566 7568 28
6055 7566 7569 28
6056 7566 7570 28
6057 7571 7572 28
6058 7571 7573 28
6059 7571 7574 28
6060 7571 7575 28
6061 7576 7577 28
6062 7576 7578 28
6063 7576 7579 28
6064 7576 7580 28
6065 7581 7582 28
6066 7581 7583 28
6067 7581 7584 28
6068 7581 7585 28
6069 7586 7587 28
6070 7586 7588 28
6071 7586 7589 28
6072 7586 7590 28
6073 7591 7592 28
6074 7591 7593 28
6075 7591 7594 28
6076 7591 7595 28
6077 7596 7597 28
6078 7596 7598 28
6079 7596 7599 28
6080 7596 7600 28
6081 7601 7602 28
6082 7601 7603 28
6083 7601 7604 28
6084 7601 7605 28
6085 7606 7607 28
6086 7606 7608 28
6087 7606 7609 28
6088 7606 7610 28
6089 7611 7612 28
6090 7611 7613 28
6091 7611 7614 28
6092 7611 7615 28
6093 7616 7617 28
6094 7616 7618 28
6095 7616 7619 28
6096 7616 7620 28
6097 7621 7622 28
6098 7621 7623 28
6099 7621 7624 28
6100 7621 7625 28
6101 7626 7627 28
6102 7626 7628 28
6103 7626 7629 28
6104 7626 7630 28
6105 7631 7632 28
6106 7631 7633 28
6107 7631 7634 28
6108 7631 7635 28
6109 7636 7637 28
6110 7636 7638 28
6111 7636 7639 28
6112 7636 7640 28
6113 7641 7642 28
6114 7641 7643 28
6115 7641 7644 28
6116 7641 7645 28
6117 7646 7647 28
6118 7646 7648 28
6119 7646 7649 28
6120 7646 7650 28
6121 7651 7652 28
6122 7651 7653 28
6123 7651 7654 28
6124 7651 7655 28
6125 7656 7657 28
6126 7656 7658 28
6127 7656 7659 28
6128 7656 7660 28
6129 7661 7662 28
6130 7661 7663 28
6131 7661 7664 28
6132 7661 7665 28
6133 7666 7667 28
6134 7666 7668 28
6135 7666 7669 28
6136 7666 7670 28
6137 7671 7672 28
6138 7671 7673 28
6139 7671 7674 28
6140 7671 7675 28
6141 7676 7677 28
6142 7676 7678 28
6143 7676 7679 28
6144 7676 7680 28
6145 7681 7682 28
6146 7681 7683 28
6147 7681 7684 28
6148 7681 7685 28
6149 7686 7687 28
6150 7686 7688 28
6151 7686 7689 28
6152 7686 7690 28
6153 7691 7692 28
6154 7691 7693 28
6155 7691 7694 28
6156 7691 7695 28
6157 7696 7697 28
6158 7696 7698 28
6159 7696 7699 28
6160 7696 7700 28
6161 7701 7702 28
6162 7701 7703 28
6163 7701 7704 28
6164 7701 7705 28
6165 7706 7707 28
6166 7706 7708 28
6167 7706 7709 28
6168 7706 7710 28
6169 7711 7712 28
6170 7711 7713 28
6171 7711 7714 28
6172 7711 7715 28
6173 7716 7717 28
6174 7716 7718 28
6175 7716 7719 28
6176 7716 7720 28
6177 7721 7722 28
6178 7721 7723 28
6179 7721 7724 28
6180 7721 7725 28
6181 7726 7727 28
6182 7726 7728 28
6183 7726 7729 28
6184 7726 7730 28
6185 7731 7732 28
6186 7731 7733 28
6187 7731 7734 28
6188 7731 7735 28
6189 7736 7737 28
6190 7736 7738 28
6191 7736 7739 28
6192 7736 7740 28
6193 7741 7742 28
6194 7741 7743 28
6195 7741 7744 28
6196 7741 7745 28
6197 7746 7747 28
6198 7746 7748 28
6199 7746 7749 28
6200 7746 7750 28
6201 7751 7752 28
6202 7751 7753 28
6203 7751 7754 28
6204 7751 7755 28
6205 7756 7757 28
6206 7756 7758 28
6207 7756 7759 28
6208 7756 7760 28
6209 7761 7762 28
6210 7761 7763 28
6211 7761 7764 28
6212 7761 7765 28
6213 7766 7767 28
6214 7766 7768 28
6215 7766 7769 28
6216 7766 7770 28
6217 7771 7772 28
6218 7771 7773 28
6219 7771 7774 28
6220 7771 7775 28
6221 7776 7777 28
6222 7776 7778 28
6223 7776 7779 28
6224 7776 7780 28
6225 7781 7782 28
6226 7781 7783 28
6227 7781 7784 28
6228 7781 7785 28
6229 7786 7787 28
6230 7786 7788 28
6231 7786 7789 28
6232 7786 7790 28
6233 7791 7792 28
6234 7791 7793 28
6235 7791 7794 28
6236 7791 7795 28
6237 7796 7797 28
6238 7796 7798 28
6239 7796 7799 28
6240 7796 7800 28
6241 7801 7802 28
6242 7801 7803 28
6243 7801 7804 28
6244 7801 7805 28
6245 7806 7807 28
6246 7806 7808 28
6247 7806 7809 28
6248 7806 7810 28
6249 7811 7812 28
6250 7811 7813 28
6251 7811 7814 28
6252 7811 7815 28
6253 7816 7817 28
6254 7816 7818 28
6255 7816 7819 28
6256 7816 7820 28
6257 7821 7822 28
6258 7821 7823 28
6259 7821 7824 28
6260 7821 7825 28
6261 7826 7827 28
6262 7826 7828 28
6263 7826 7829 28
6264 7826 7830 28
6265 7831 7832 28
6266 7831 7833 28
6267 7831 7834 28
6268 7831 7835 28
6269 7836 7837 28
6270 7836 7838 28
6271 7836 7839 28
6272 7836 7840 28
6273 7841 7842 28
6274 7841 7843 28
6275 7841 7844 28
6276 7841 7845 28
6277 7846 7847 28
6278 7846 7848 28
6279 7846 7849 28
6280 7846 7850 28
6281 7851 7852 28
6282 7851 7853 28
6283 7851 7854 28
6284 7851 7855 28
6285 7856 7857 28
6286 7856 7858 28
6287 7856 7859 28
6288 7856 7860 28
6289 7861 7862 28
6290 7861 7863 28
6291 7861 7864 28
6292 7861 7865 28
6293 7866 7867 28
6294 7866 7868 28
6295 7866 7869 28
6296 7866 7870 28
6297 7871 7872 28
6298 7871 7873 28
6299 7871 7874 28
6300 7871 7875 28
6301 7876 7877 28
6302 7876 7878 28
6303 7876 7879 28
6304 7876 7880 28
6305 7881 7882 28
6306 7881 7883 28
6307 7881 7884 28
6308 7881 7885 28
6309 7886 7887 28
6310 7886 7888 28
6311 7886 7889 28
6312 7886 7890 28
6313 7891 7892 28
6314 7891 7893 28
6315 7891 7894 28
6316 7891 7895 28
6317 7896 7897 28
6318 7896 7898 28
6319 7896 7899 28
6320 7896 7900 28
6321 7901 7902 28
6322 7901 7903 28
6323 7901 7904 28
6324 7901 7905 28
6325 7906 7907 28
6326 7906 7908 28
6327 7906 7909 28
6328 7906 7910 28
6329 7911 7912 28
6330 7911 7913 28
6331 7911 7914 28
6332 7911 7915 28
6333 7916 7917 28
6334 7916 7918 28
6335 7916 7919 28
6336 7916 7920 28
6337 7921 7922 28
6338 7921 7923 28
6339 7921 7924 28
6340 7921 7925 28
6341 7926 7927 28
6342 7926 7928 28
6343 7926 7929 28
6344 7926 7930 28
6345 7931 7932 28
6346 7931 7933 28
6347 7931 7934 28
6348 7931 7935 28
6349 7936 7937 28
6350 7936 7938 28
6351 7936 7939 28
6352 7936 7940 28
6353 7941 7942 28
6354 7941 7943 28
6355 7941 7944 28
6356 7941 7945 28
6357 7946 7947 28
6358 7946 7948 28
6359 7946 7949 28
6360 7946 7950 28
6361 7951 7952 28
6362 7951 7953 28
6363 7951 7954 28
6364 7951 7955 28
6365 7956 7957 28
6366 7956 7958 28
6367 7956 7959 28
6368 7956 7960 28
6369 7961 7962 28
6370 7961 7963 28
6371 7961 7964 28
6372 7961 7965 28
6373 7966 7967 28
6374 7966 7968 28
6375 7966 7969 28
6376 7966 7970 28
6377 7971 7972 28
6378 7971 7973 28
6379 7971 7974 28
6380 7971 7975 28
6381 7976 7977 28
6382 7976 7978 28
6383 7976 7979 28
6384 7976 7980 28
6385 7981 7982 28
6386 7981 7983 28
6387 7981 7984 28
6388 7981 7985 28
6389 7986 7987 28
6390 7986 7988 28
6391 7986 7989 28
6392 7986 7990 28
6393 7991 7992 28
6394 7991 7993 28
6395 7991 7994 28
6396 7991 7995 28
6397 7996 7997 28
6398 7996 7998 28
6399 7996 7999 28
6400 7996 8000 28
6401 8001 8002 28
6402 8001 8003 28
6403 8001 8004 28
6404 8001 8005 28
6405 8006 8007 28
6406 8006 8008 28
6407 8006 8009 28
6408 8006 8010 28
6409 8011 8012 28
6410 8011 8013 28
6411 8011 8014 28
6412 8011 8015 28
6413 8016 8017 28
6414 8016 8018 28
6415 8016 8019 28
6416 8016 8020 28
6417 8021 8022 28
6418 8021 8023 28
6419 8021 8024 28
6420 8021 8025 28
6421 8026 8027 28
6422 8026 8028 28
6423 8026 8029 28
6424 8026 8030 28
6425 8031 8032 28
6426 8031 8033 28
6427 8031 8034 28
6428 8031 8035 28
6429 8036 8037 28
6430 8036 8038 28
6431 8036 8039 28
6432 8036 8040 28
6433 8041 8042 28
6434 8041 8043 28
6435 8041 8044 28
6436 8041 8045 28
6437 8046 8047 28
6438 8046 8048 28
6439 8046 8049 28
6440 8046 8050 28
6441 8051 8052 28
6442 8051 8053 28
6443 8051 8054 28
6444 8051 8055 28
6445 8056 8057 28
6446 8056 8058 28
6447 8056 8059 28
6448 8056 8060 28
6449 8061 8062 28
6450 8061 8063 28
6451 8061 8064 28
6452 8061 8065 28
6453 8066 8067 28
6454 8066 8068 28
6455 8066 8069 28
6456 8066 8070 28
6457 8071 8072 28
6458 8071 8073 28
6459 8071 8074 28
6460 8071 8075 28
6461 8076 8077 28
6462 8076 8078 28
6463 8076 8079 28
6464 8076 8080 28
6465 8081 8082 28
6466 8081 8083 28
6467 8081 8084 28
6468 8081 8085 28
6469 8086 8087 28
6470 8086 8088 28
6471 8086 8089 28
6472 8086 8090 28
6473 8091 8092 28
6474 8091 8093 28
6475 8091 8094 28
6476 8091 8095 28
6477 8096 8097 28
6478 8096 8098 28
6479 8096 8099 28
6480 8096 8100 28
6481 8101 8102 28
6482 8101 8103 28
6483 8101 8104 28
6484 8101 8105 28
6485 8106 8107 28
6486 8106 8108 28
6487 8106 8109 28
6488 8106 8110 28
6489 8111 8112 28
6490 8111 8113 28
6491 8111 8114 28
6492 8111 8115 28
6493 8116 8117 28
6494 8116 8118 28
6495 8116 8119 28
6496 8116 8120 28
6497 8121 8122 28
6498 8121 8123 28
6499 8121 8124 28
6500 8121 8125 28
6501 8126 8127 28
6502 8126 8128 28
6503 8126 8129 28
6504 8126 8130 28
6505 8131 8132 28
6506 8131 8133 28
6507 8131 8134 28
6508 8131 8135 28
6509 8136 8137 28
6510 8136 8138 28
6511 8136 8139 28
6512 8136 8140 28
6513 8141 8142 28
6514 8141 8143 28
6515 8141 8144 28
6516 8141 8145 28
6517 8146 8147 28
6518 8146 8148 28
6519 8146 8149 28
6520 8146 8150 28
6521 8151 8152 28
6522 8151 8153 28
6523 8151 8154 28
6524 8151 8155 28
6525 8156 8157 28
6526 8156 8158 28
6527 8156 8159 28
6528 8156 8160 28
6529 8161 8162 28
6530 8161 8163 28
6531 8161 8164 28
6532 8161 8165 28
6533 8166 8167 28
6534 8166 8168 28
6535 8166 8169 28
6536 8166 8170 28
6537 8171 8172 28
6538 8171 8173 28
6539 8171 8174 28
6540 8171 8175 28
6541 8176 8177 28
6542 8176 8178 28
6543 8176 8179 28
6544 8176 8180 28
6545 8181 8182 28
6546 8181 8183 28
6547 8181 8184 28
6548 8181 8185 28
6549 8186 8187 28
6550 8186 8188 28
6551 8186 8189 28
6552 8186 8190 28
6553 8191 8192 28
6554 8191 8193 28
6555 8191 8194 28
6556 8191 8195 28
6557 8196 8197 28
6558 8196 8198 28
6559 8196 8199 28
6560 8196 8200 28
6561 8201 8202 28
6562 8201 8203 28
6563 8201 8204 28
6564 8201 8205 28
6565 8206 8207 28
6566 8206 8208 28
6567 8206 8209 28
6568 8206 8210 28
6569 8211 8212 28
6570 8211 8213 28
6571 8211 8214 28
6572 8211 8215 28
6573 8216 8217 28
6574 8216 8218 28
6575 8216 8219 28
6576 8216 8220 28
6577 8221 8222 28
6578 8221 8223 28
6579 8221 8224 28
6580 8221 8225 28
6581 8226 8227 28
6582 8226 8228 28
6583 8226 8229 28
6584 8226 8230 28
6585 8231 8232 28
6586 8231 8233 28
6587 8231 8234 28
6588 8231 8235 28
6589 8236 8237 28
6590 8236 8238 28
6591 8236 8239 28
6592 8236 8240 28
6593 8241 8242 28
6594 8241 8243 28
6595 8241 8244 28
6596 8241 8245 28
6597 8246 8247 28
6598 8246 8248 28
6599 8246 8249 28
6600 8246 8250 28
6601 8251 8252 28
6602 8251 8253 28
6603 8251 8254 28
6604 8251 8255 28
6605 8256 8257 28
6606 8256 8258 28
6607 8256 8259 28
6608 8256 8260 28
6609 8261 8262 28
6610 8261 8263 28
6611 8261 8264 28
6612 8261 8265 28
6613 8266 8267 28
6614 8266 8268 28
6615 8266 8269 28
6616 8266 8270 28
6617 8271 8272 28
6618 8271 8273 28
6619 8271 8274 28
6620 8271 8275 28
6621 8276 8277 28
6622 8276 8278 28
6623 8276 8279 28
6624 8276 8280 28
6625 8281 8282 28
6626 8281 8283 28
6627 8281 8284 28
6628 8281 8285 28
6629 8286 8287 28
6630 8286 8288 28
6631 8286 8289 28
6632 8286 8290 28
6633 8291 8292 28
6634 8291 8293 28
6635 8291 8294 28
6636 8291 8295 28
6637 8296 8297 28
6638 8296 8298 28
6639 8296 8299 28
6640 8296 8300 28
6641 8301 8302 28
6642 8301 8303 28
6643 8301 8304 28
6644 8301 8305 28
6645 8306 8307 28
6646 8306 8308 28
6647 8306 8309 28
6648 8306 8310 28
6649 8311 8312 28
6650 8311 8313 28
6651 8311 8314 28
6652 8311 8315 28
6653 8316 8317 28
6654 8316 8318 28
6655 8316 8319 28
6656 8316 8320 28
6657 8321 8322 28
6658 8321 8323 28
6659 8321 8324 28
6660 8321 8325 28
6661 8326 8327 28
6662 8326 8328 28
6663 8326 8329 28
6664 8326 8330 28
6665 8331 8332 28
6666 8331 8333 28
6667 8331 8334 28
6668 8331 8335 28
6669 8336 8337 28
6670 8336 8338 28
6671 8336 8339 28
6672 8336 8340 28
6673 8341 8342 28
6674 8341 8343 28
6675 8341 8344 28
6676 8341 8345 28
6677 8346 8347 28
6678 8346 8348 28
6679 8346 8349 28
6680 8346 8350 28
6681 8351 8352 28
6682 8351 8353 28
6683 8351 8354 28
6684 8351 8355 28
6685 8356 8357 28
6686 8356 8358 28
6687 8356 8359 28
6688 8356 8360 28
6689 8361 8362 28
6690 8361 8363 28
6691 8361 8364 28
6692 8361 8365 28
6693 8366 8367 28
6694 8366 8368 28
6695 8366 8369 28
6696 8366 8370 28
6697 8371 8372 28
6698 8371 8373 28
6699 8371 8374 28
6700 8371 8375 28
6701 8376 8377 28
6702 8376 8378 28
6703 8376 8379 28
6704 8376 8380 28
6705 8381 8382 28
6706 8381 8383 28
6707 8381 8384 28
6708 8381 8385 28
6709 8386 8387 28
6710 8386 8388 28
6711 8386 8389 28
6712 8386 8390 28
6713 8391 8392 28
6714 8391 8393 28
6715 8391 8394 28
6716 8391 8395 28
6717 8396 8397 28
6718 8396 8398 28
6719 8396 8399 28
6720 8396 8400 28
6721 8401 8402 28
6722 8401 8403 28
6723 8401 8404 28
6724 8401 8405 28
6725 8406 8407 28
6726 8406 8408 28
6727 8406 8409 28
6728 8406 8410 28
6729 8411 8412 28
6730 8411 8413 28
6731 8411 8414 28
6732 8411 8415 28
6733 8416 8417 28
6734 8416 8418 28
6735 8416 8419 28
6736 8416 8420 28
6737 8421 8422 28
6738 8421 8423 28
6739 8421 8424 28
6740 8421 8425 28
6741 8426 8427 28
6742 8426 8428 28
6743 8426 8429 28
6744 8426 8430 28
6745 8431 8432 28
6746 8431 8433 28
6747 8431 8434 28
6748 8431 8435 28
6749 8436 8437 28
6750 8436 8438 28
6751 8436 8439 28
6752 8436 8440 28
6753 8441 8442 28
6754 8441 8443 28
6755 8441 8444 28
6756 8441 8445 28
6757 8446 8447 28
6758 8446 8448 28
6759 8446 8449 28
6760 8446 8450 28
6761 8451 8452 28
6762 8451 8453 28
6763 8451 8454 28
6764 8451 8455 28
6765 8456 8457 28
6766 8456 8458 28
6767 8456 8459 28
6768 8456 8460 28
6769 8461 8462 28
6770 8461 8463 28
6771 8461 8464 28
6772 8461 8465 28
6773 8466 8467 28
6774 8466 8468 28
6775 8466 8469 28
6776 8466 8470 28
6777 8471 8472 28
6778 8471 8473 28
6779 8471 8474 28
6780 8471 8475 28
6781 8476 8477 28
6782 8476 8478 28
6783 8476 8479 28
6784 8476 8480 28
6785 8481 8482 28
6786 8481 8483 28
6787 8481 8484 28
6788 8481 8485 28
6789 8486 8487 28
6790 8486 8488 28
6791 8486 8489 28
6792 8486 8490 28
6793 8491 8492 28
6794 8491 8493 28
6795 8491 8494 28
6796 8491 8495 28
6797 8496 8497 28
6798 8496 8498 28
6799 8496 8499 28
6800 8496 8500 28
6801 8501 8502 28
6802 8501 8503 28
6803 8501 8504 28
6804 8501 8505 28
6805 8506 8507 28
6806 8506 8508 28
6807 8506 8509 28
6808 8506 8510 28
6809 8511 8512 28
6810 8511 8513 28
6811 8511 8514 28
6812 8511 8515 28
6813 8516 8517 28
6814 8516 8518 28
6815 8516 8519 28
6816 8516 8520 28
6817 8521 8522 28
6818 8521 8523 28
6819 8521 8524 28
6820 8521 8525 28
6821 8526 8527 28
6822 8526 8528 28
6823 8526 8529 28
6824 8526 8530 28
6825 8531 8532 28
6826 8531 8533 28
6827 8531 8534 28
6828 8531 8535 28
6829 8536 8537 28
6830 8536 8538 28
6831 8536 8539 28
6832 8536 8540 28
6833 8541 8542 28
6834 8541 8543 28
6835 8541 8544 28
6836 8541 8545 28
6837 8546 8547 28
6838 8546 8548 28
6839 8546 8549 28
6840 8546 8550 28
6841 8551 8552 28
6842 8551 8553 28
6843 8551 8554 28
6844 8551 8555 28
6845 8556 8557 28
6846 8556 8558 28
6847 8556 8559 28
6848 8556 8560 28
6849 8561 8562 28
6850 8561 8563 28
6851 8561 8564 28
6852 8561 8565 28
6853 8566 8567 28
6854 8566 8568 28
6855 8566 8569 28
6856 8566 8570 28
6857 8571 8572 28
6858 8571 8573 28
6859 8571 8574 28
6860 8571 8575 28
6861 8576 8577 28
6862 8576 8578 28
6863 8576 8579 28
6864 8576 8580 28
6865 8581 8582 28
6866 8581 8583 28
6867 8581 8584 28
6868 8581 8585 28
6869 8586 8587 28
6870 8586 8588 28
6871 8586 8589 28
6872 8586 8590 28
6873 8591 8592 28
6874 8591 8593 28
6875 8591 8594 28
6876 8591 8595 28
6877 8596 8597 28
6878 8596 8598 28
6879 8596 8599 28
6880 8596 8600 28
6881 8601 8602 28
6882 8601 8603 28
6883 8601 8604 28
6884 8601 8605 28
6885 8606 8607 28
6886 8606 8608 28
6887 8606 8609 28
6888 8606 8610 28
6889 8611 8612 28
6890 8611 8613 28
6891 8611 8614 28
6892 8611 8615 28
6893 8616 8617 28
6894 8616 8618 28
6895 8616 8619 28
6896 8616 8620 28
6897 8621 8622 28
6898 8621 8623 28
6899 8621 8624 28
6900 8621 8625 28
6901 8626 8627 28
6902 8626 8628 28
6903 8626 8629 28
6904 8626 8630 28
6905 8631 8632 28
6906 8631 8633 28
6907 8631 8634 28
6908 8631 8635 28
6909 8636 8637 28
6910 8636 8638 28
6911 8636 8639 28
6912 8636 8640 28
6913 8641 8642 28
6914 8641 8643 28
6915 8641 8644 28
6916 8641 8645 28
6917 8646 8647 28
6918 8646 8648 28
6919 8646 8649 28
6920 8646 8650 28
6921 8651 8652 28
6922 8651 8653 28
6923 8651 8654 28
6924 8651 8655 28
6925 8656 8657 28
6926 8656 8658 28
6927 8656 8659 28
6928 8656 8660 28
6929 8661 8662 28
6930 8661 8663 28
6931 8661 8664 28
6932 8661 8665 28
6933 8666 8667 28
6934 8666 8668 28
6935 8666 8669 28
6936 8666 8670 28
6937 8671 8672 28
6938 8671 8673 28
6939 8671 8674 28
6940 8671 8675 28
6941 8676 8677 28
6942 8676 8678 28
6943 8676 8679 28
6944 8676 8680 28
6945 8681 8682 28
6946 8681 8683 28
6947 8681 8684 28
6948 8681 8685 28
6949 8686 8687 28
6950 8686 8688 28
6951 8686 8689 28
6952 8686 8690 28
6953 8691 8692 28
6954 8691 8693 28
6955 8691 8694 28
6956 8691 8695 28
6957 8696 8697 28
6958 8696 8698 28
6959 8696 8699 28
6960 8696 8700 28
6961 8701 8702 28
6962 8701 8703 28
6963 8701 8704 28
6964 8701 8705 28
6965 8706 8707 28
6966 8706 8708 28
6967 8706 8709 28
6968 8706 8710 28
6969 8711 8712 28
6970 8711 8713 28
6971 8711 8714 28
6972 8711 8715 28
6973 8716 8717 28
6974 8716 8718 28
6975 8716 8719 28
6976 8716 8720 28
6977 8721 8722 28
6978 8721 8723 28
6979 8721 8724 28
6980 8721 8725 28
6981 8726 8727 28
6982 8726 8728 28
6983 8726 8729 28
6984 8726 8730 28
6985 8731 8732 28
6986 8731 8733 28
6987 8731 8734 28
6988 8731 8735 28
6989 8736 8737 28
6990 8736 8738 28
6991 8736 8739 28
6992 8736 8740 28
6993 8741 8742 28
6994 8741 8743 28
6995 8741 8744 28
6996 8741 8745 28
6997 8746 8747 28
6998 8746 8748 28
6999 8746 8749 28
7000 8746 8750 28
7001 8751 8752 28
7002 8751 8753 28
7003 8751 8754 28
7004 8751 8755 28
7005 8756 8757 28
7006 8756 8758 28
7007 8756 8759 28
7008 8756 8760 28
7009 8761 8762 28
7010 8761 8763 28
7011 8761 8764 28
7012 8761 8765 28
7013 8766 8767 28
7014 8766 8768 28
7015 8766 8769 28
7016 8766 8770 28
7017 8771 8772 28
7018 8771 8773 28
7019 8771 8774 28
7020 8771 8775 28
7021 8776 8777 28
7022 8776 8778 28
7023 8776 8779 28
7024 8776 8780 28
7025 8781 8782 28
7026 8781 8783 28
7027 8781 8784 28
7028 8781 8785 28
7029 8786 8787 28
7030 8786 8788 28
7031 8786 8789 28
7032 8786 8790 28
7033 8791 8792 28
7034 8791 8793 28
7035 8791 8794 28
7036 8791 8795 28
7037 8796 8797 28
7038 8796 8798 28
7039 8796 8799 28
7040 8796 8800 28
7041 8801 8802 28
7042 8801 8803 28
7043 8801 8804 28
7044 8801 8805 28
7045 8806 8807 28
7046 8806 8808 28
7047 8806 8809 28
7048 8806 8810 28
7049 8811 8812 28
7050 8811 8813 28
7051 8811 8814 28
7052 8811 8815 28
7053 8816 8817 28
7054 8816 8818 28
7055 8816 8819 28
7056 8816 8820 28
7057 8821 8822 28
7058 8821 8823 28
7059 8821 8824 28
7060 8821 8825 28
7061 8826 8827 28
7062 8826 8828 28
7063 8826 8829 28
7064 8826 8830 28
7065 8831 8832 28
7066 8831 8833 28
7067 8831 8834 28
7068 8831 8835 28
7069 8836 8837 28
7070 8836 8838 28
7071 8836 8839 28
7072 8836 8840 28
7073 8841 8842 28
7074 8841 8843 28
7075 8841 8844 28
7076 8841 8845 28
7077 8846 8847 28
7078 8846 8848 28
7079 8846 8849 28
7080 8846 8850 28
7081 8851 8852 28
7082 8851 8853 28
7083 8851 8854 28
7084 8851 8855 28
7085 8856 8857 28
7086 8856 8858 28
7087 8856 8859 28
7088 8856 8860 28
7089 8861 8862 28
7090 8861 8863 28
7091 8861 8864 28
7092 8861 8865 28
7093 8866 8867 28
7094 8866 8868 28
7095 8866 8869 28
7096 8866 8870 28
7097 8871 8872 28
7098 8871 8873 28
7099 8871 8874 28
7100 8871 8875 28
7101 8876 8877 28
7102 8876 8878 28
7103 8876 8879 28
7104 8876 8880 28
7105 8881 8882 28
7106 8881 8883 28
7107 8881 8884 28
7108 8881 8885 28
7109 8886 8887 28
7110 8886 8888 28
7111 8886 8889 28
7112 8886 8890 28
7113 8891 8892 28
7114 8891 8893 28
7115 8891 8894 28
7116 8891 8895 28
7117 8896 8897 28
7118 8896 8898 28
7119 8896 8899 28
7120 8896 8900 28
7121 8901 8902 28
7122 8901 8903 28
7123 8901 8904 28
7124 8901 8905 28
7125 8906 8907 28
7126 8906 8908 28
7127 8906 8909 28
7128 8906 8910 28
7129 8911 8912 28
7130 8911 8913 28
7131 8911 8914 28
7132 8911 8915 28
7133 8916 8917 28
7134 8916 8918 28
7135 8916 8919 28
7136 8916 8920 28
7137 8921 8922 28
7138 8921 8923 28
7139 8921 8924 28
7140 8921 8925 28
7141 8926 8927 28
7142 8926 8928 28
7143 8926 8929 28
7144 8926 8930 28
7145 8931 8932 28
7146 8931 8933 28
7147 8931 8934 28
7148 8931 8935 28
7149 8936 8937 28
7150 8936 8938 28
7151 8936 8939 28
7152 8936 8940 28
7153 8941 8942 28
7154 8941 8943 28
7155 8941 8944 28
7156 8941 8945 28
7157 8946 8947 28
7158 8946 8948 28
7159 8946 8949 28
7160 8946 8950 28
7161 8951 8952 28
7162 8951 8953 28
7163 8951 8954 28
7164 8951 8955 28
7165 8956 8957 28
7166 8956 8958 28
7167 8956 8959 28
7168 8956 8960 28
7169 8961 8962 28
7170 8961 8963 28
7171 8961 8964 28
7172 8961 8965 28
7173 8966 8967 28
7174 8966 8968 28
7175 8966 8969 28
7176 8966 8970 28
7177 8971 8972 28
7178 8971 8973 28
7179 8971 8974 28
7180 8971 8975 28
7181 8976 8977 28
7182 8976 8978 28
7183 8976 8979 28
7184 8976 8980 28
7185 8981 8982 28
7186 8981 8983 28
7187 8981 8984 28
7188 8981 8985 28
7189 8986 8987 28
7190 8986 8988 28
7191 8986 8989 28
7192 8986 8990 28
7193 8991 8992 28
7194 8991 8993 28
7195 8991 8994 28
7196 8991 8995 28
7197 8996 8997 28
7198 8996 8998 28
7199 8996 8999 28
7200 8996 9000 28
7201 9001 9002 28
7202 9001 9003 28
7203 9001 9004 28
7204 9001 9005 28
7205 9006 9007 28
7206 9006 9008 28
7207 9006 9009 28
7208 9006 9010 28
7209 9011 9012 28
7210 9011 9013 28
7211 9011 9014 28
7212 9011 9015 28
7213 9016 9017 28
7214 9016 9018 28
7215 9016 9019 28
7216 9016 9020 28
7217 9021 9022 28
7218 9021 9023 28
7219 9021 9024 28
7220 9021 9025 28
7221 9026 9027 28
7222 9026 9028 28
7223 9026 9029 28
7224 9026 9030 28
7225 9031 9032 28
7226 9031 9033 28
7227 9031 9034 28
7228 9031 9035 28
7229 9036 9037 28
7230 9036 9038 28
7231 9036 9039 28
7232 9036 9040 28
7233 9041 9042 28
7234 9041 9043 28
7235 9041 9044 28
7236 9041 9045 28
7237 9046 9047 28
7238 9046 9048 28
7239 9046 9049 28
7240 9046 9050 28
7241 9051 9052 28
7242 9051 9053 28
7243 9051 9054 28
7244 9051 9055 28
7245 9056 9057 28
7246 9056 9058 28
7247 9056 9059 28
7248 9056 9060 28
7249 9061 9062 28
7250 9061 9063 28
7251 9061 9064 28
7252 9061 9065 28
7253 9066 9067 28
7254 9066 9068 28
7255 9066 9069 28
7256 9066 9070 28
7257 9071 9072 28
7258 9071 9073 28
7259 9071 9074 28
7260 9071 9075 28
7261 9076 9077 28
7262 9076 9078 28
7263 9076 9079 28
7264 9076 9080 28
7265 9081 9082 28
7266 9081 9083 28
7267 9081 9084 28
7268 9081 9085 28
7269 9086 9087 28
7270 9086 9088 28
7271 9086 9089 28
7272 9086 9090 28
7273 9091 9092 28
7274 9091 9093 28
7275 9091 9094 28
7276 9091 9095 28
7277 9096 9097 28
7278 9096 9098 28
7279 9096 9099 28
7280 9096 9100 28
7281 9101 9102 28
7282 9101 9103 28
7283 9101 9104 28
7284 9101 9105 28
7285 9106 9107 28
7286 9106 9108 28
7287 9106 9109 28
7288 9106 9110 28
7289 9111 9112 28
7290 9111 9113 28
7291 9111 9114 28
7292 9111 9115 28
7293 9116 9117 28
7294 9116 9118 28
7295 9116 9119 28
7296 9116 9120 28
7297 9121 9122 28
7298 9121 9123 28
7299 9121 9124 28
7300 9121 9125 28
7301 9126 9127 28
7302 9126 9128 28
7303 9126 9129 28
7304 9126 9130 28
7305 9131 9132 28
7306 9131 9133 28
7307 9131 9134 28
7308 9131 9135 28
7309 9136 9137 28
7310 9136 9138 28
7311 9136 9139 28
7312 9136 9140 28
7313 9141 9142 28
7314 9141 9143 28
7315 9141 9144 28
7316 9141 9145 28
7317 9146 9147 28
7318 9146 9148 28
7319 9146 9149 28
7320 9146 9150 28
7321 9151 9152 28
7322 9151 9153 28
7323 9151 9154 28
7324 9151 9155 28
7325 9156 9157 28
7326 9156 9158 28
7327 9156 9159 28
7328 9156 9160 28
7329 9161 9162 28
7330 9161 9163 28
7331 9161 9164 28
7332 9161 9165 28
7333 9166 9167 28
7334 9166 9168 28
7335 9166 9169 28
7336 9166 9170 28
7337 9171 9172 28
7338 9171 9173 28
7339 9171 9174 28
7340 9171 9175 28
7341 9176 9177 28
7342 9176 9178 28
7343 9176 9179 28
7344 9176 9180 28
7345 9181 9182 28
7346 9181 9183 28
7347 9181 9184 28
7348 9181 9185 28
7349 9186 9187 28
7350 9186 9188 28
7351 9186 9189 28
7352 9186 9190 28
7353 9191 9192 28
7354 9191 9193 28
7355 9191 9194 28
7356 9191 9195 28
7357 9196 9197 28
7358 9196 9198 28
7359 9196 9199 28
7360 9196 9200 28
7361 9201 9202 28
7362 9201 9203 28
7363 9201 9204 28
7364 9201 9205 28
7365 9206 9207 28
7366 9206 9208 28
7367 9206 9209 28
7368 9206 9210 28
7369 9211 9212 28
7370 9211 9213 28
7371 9211 9214 28
7372 9211 9215 28
7373 9216 9217 28
7374 9216 9218 28
7375 9216 9219 28
7376 9216 9220 28
7377 9221 9222 28
7378 9221 9223 28
7379 9221 9224 28
7380 9221 9225 28
7381 9226 9227 28
7382 9226 9228 28
7383 9226 9229 28
7384 9226 9230 28
7385 9231 9232 28
7386 9231 9233 28
7387 9231 9234 28
7388 9231 9235 28
7389 9236 9237 28
7390 9236 9238 28
7391 9236 9239 28
7392 9236 9240 28
7393 9241 9242 28
7394 9241 9243 28
7395 9241 9244 28
7396 9241 9245 28
7397 9246 9247 28
7398 9246 9248 28
7399 9246 9249 28
7400 9246 9250 28
7401 9251 9252 28
7402 9251 9253 28
7403 9251 9254 28
7404 9251 9255 28
7405 9256 9257 28
7406 9256 9258 28
7407 9256 9259 28
7408 9256 9260 28
7409 9261 9262 28
7410 9261 9263 28
7411 9261 9264 28
7412 9261 9265 28
7413 9266 9267 28
7414 9266 9268 28
7415 9266 9269 28
7416 9266 9270 28
7417 9271 9272 28
7418 9271 9273 28
7419 9271 9274 28
7420 9271 9275 28
7421 9276 9277 28
7422 9276 9278 28
7423 9276 9279 28
7424 9276 9280 28
7425 9281 9282 28
7426 9281 9283 28
7427 9281 9284 28
7428 9281 9285 28
7429 9286 9287 28
7430 9286 9288 28
7431 9286 9289 28
7432 9286 9290 28
7433 9291 9292 28
7434 9291 9293 28
7435 9291 9294 28
7436 9291 9295 28
7437 9296 9297 28
7438 9296 9298 28
7439 9296 9299 28
7440 9296 9300 28
7441 9301 9302 28
7442 9301 9303 28
7443 9301 9304 28
7444 9301 9305 28
7445 9306 9307 28
7446 9306 9308 28
7447 9306 9309 28
7448 9306 9310 28
7449 9311 9312 28
7450 9311 9313 28
7451 9311 9314 28
7452 9311 9315 28
7453 9316 9317 28
7454 9316 9318 28
7455 9316 9319 28
7456 9316 9320 28
7457 9321 9322 28
7458 9321 9323 28
7459 9321 9324 28
7460 9321 9325 28
7461 9326 9327 28
7462 9326 9328 28
7463 9326 9329 28
7464 9326 9330 28
7465 9331 9332 28
7466 9331 9333 28
7467 9331 9334 28
7468 9331 9335 28
7469 9336 9337 28
7470 9336 9338 28
7471 9336 9339 28
7472 9336 9340 28
7473 9341 9342 28
7474 9341 9343 28
7475 9341 9344 28
7476 9341 9345 28
7477 9346 9347 28
7478 9346 9348 28
7479 9346 9349 28
7480 9346 9350 28
7481 9351 9352 28
7482 9351 9353 28
7483 9351 9354 28
7484 9351 9355 28
7485 9356 9357 28
7486 9356 9358 28
7487 9356 9359 28
7488 9356 9360 28
7489 9361 9362 28
7490 9361 9363 28
7491 9361 9364 28
7492 9361 9365 28
7493 9366 9367 28
7494 9366 9368 28
7495 9366 9369 28
7496 9366 9370 28
7497 9371 9372 28
7498 9371 9373 28
7499 9371 9374 28
7500 9371 9375 28
7501 9376 9377 28
7502 9376 9378 28
7503 9376 9379 28
7504 9376 9380 28
7505 9381 9382 28
7506 9381 9383 28
7507 9381 9384 28
7508 9381 9385 28
7509 9386 9387 28
7510 9386 9388 28
7511 9386 9389 28
7512 9386 9390 28
7513 9391 9392 28
7514 9391 9393 28
7515 9391 9394 28
7516 9391 9395 28
7517 9396 9397 28
7518 9396 9398 28
7519 9396 9399 28
7520 9396 9400 28
7521 9401 9402 28
7522 9401 9403 28
7523 9401 9404 28
7524 9401 9405 28
7525 9406 9407 28
7526 9406 9408 28
7527 9406 9409 28
7528 9406 9410 28
7529 9411 9412 28
7530 9411 9413 28
7531 9411 9414 28
7532 9411 9415 28
7533 9416 9417 28
7534 9416 9418 28
7535 9416 9419 28
7536 9416 9420 28
7537 9421 9422 28
7538 9421 9423 28
7539 9421 9424 28
7540 9421 9425 28
7541 9426 9427 28
7542 9426 9428 28
7543 9426 9429 28
7544 9426 9430 28
7545 9431 9432 28
7546 9431 9433 28
7547 9431 9434 28
7548 9431 9435 28
7549 9436 9437 28
7550 9436 9438 28
7551 9436 9439 28
7552 9436 9440 28
7553 9441 9442 28
7554 9441 9443 28
7555 9441 9444 28
7556 9441 9445 28
7557 9446 9447 28
7558 9446 9448 28
7559 9446 9449 28
7560 9446 9450 28
7561 9451 9452 28
7562 9451 9453 28
7563 9451 9454 28
7564 9451 9455 28
7565 9456 9457 28
7566 9456 9458 28
7567 9456 9459 28
7568 9456 9460 28
7569 9461 9462 28
7570 9461 9463 28
7571 9461 9464 28
7572 9461 9465 28
7573 9466 9467 28
7574 9466 9468 28
7575 9466 9469 28
7576 9466 9470 28
7577 9471 9472 28
7578 9471 9473 28
7579 9471 9474 28
7580 9471 9475 28
7581 9476 9477 28
7582 9476 9478 28
7583 9476 9479 28
7584 9476 9480 28
7585 9481 9482 28
7586 9481 9483 28
7587 9481 9484 28
7588 9481 9485 28
7589 9486 9487 28
7590 9486 9488 28
7591 9486 9489 28
7592 9486 9490 28
7593 9491 9492 28
7594 9491 9493 28
7595 9491 9494 28
7596 9491 9495 28
7597 9496 9497 28
7598 9496 9498 28
7599 9496 9499 28
7600 9496 9500 28
7601 9501 9502 28
7602 9501 9503 28
7603 9501 9504 28
7604 9501 9505 28
7605 9506 9507 28
7606 9506 9508 28
7607 9506 9509 28
7608 9506 9510 28
7609 9511 9512 28
7610 9511 9513 28
7611 9511 9514 28
7612 9511 9515 28
7613 9516 9517 28
7614 9516 9518 28
7615 9516 9519 28
7616 9516 9520 28
7617 9521 9522 28
7618 9521 9523 28
7619 9521 9524 28
7620 9521 9525 28
7621 9526 9527 28
7622 9526 9528 28
7623 9526 9529 28
7624 9526 9530 28
7625 9531 9532 28
7626 9531 9533 28
7627 9531 9534 28
7628 9531 9535 28
7629 9536 9537 28
7630 9536 9538 28
7631 9536 9539 28
7632 9536 9540 28
7633 9541 9542 28
7634 9541 9543 28
7635 9541 9544 28
7636 9541 9545 28
7637 9546 9547 28
7638 9546 9548 28
7639 9546 9549 28
7640 9546 9550 28
7641 9551 9552 28
7642 9551 9553 28
7643 9551 9554 28
7644 9551 9555 28
7645 9556 9557 28
7646 9556 9558 28
7647 9556 9559 28
7648 9556 9560 28
7649 9561 9562 28
7650 9561 9563 28
7651 9561 9564 28
7652 9561 9565 28
7653 9566 9567 28
7654 9566 9568 28
7655 9566 9569 28
7656 9566 9570 28
7657 9571 9572 28
7658 9571 9573 28
7659 9571 9574 28
7660 9571 9575 28
7661 9576 9577 28
7662 9576 9578 28
7663 9576 9579 28
7664 9576 9580 28
7665 9581 9582 28
7666 9581 9583 28
7667 9581 9584 28
7668 9581 9585 28
7669 9586 9587 28
7670 9586 9588 28
7671 9586 9589 28
7672 9586 9590 28
7673 9591 9592 28
7674 9591 9593 28
7675 9591 9594 28
7676 9591 9595 28
7677 9596 9597 28
7678 9596 9598 28
7679 9596 9599 28
7680 9596 9600 28
7681 9601 9602 28
7682 9601 9603 28
7683 9601 9604 28
7684 9601 9605 28
7685 9606 9607 28
7686 9606 9608 28
7687 9606 9609 28
7688 9606 9610 28
7689 9611 9612 28
7690 9611 9613 28
7691 9611 9614 28
7692 9611 9615 28
7693 9616 9617 28
7694 9616 9618 28
7695 9616 9619 28
7696 9616 9620 28
7697 9621 9622 28
7698 9621 9623 28
7699 9621 9624 28
7700 9621 9625 28
7701 9626 9627 28
7702 9626 9628 28
7703 9626 9629 28
7704 9626 9630 28
7705 9631 9632 28
7706 9631 9633 28
7707 9631 9634 28
7708 9631 9635 28
7709 9636 9637 28
7710 9636 9638 28
7711 9636 9639 28
7712 9636 9640 28
7713 9641 9642 28
7714 9641 9643 28
7715 9641 9644 28
7716 9641 9645 28
7717 9646 9647 28
7718 9646 9648 28
7719 9646 9649 28
7720 9646 9650 28
7721 9651 9652 28
7722 9651 9653 28
7723 9651 9654 28
7724 9651 9655 28
7725 9656 9657 28
7726 9656 9658 28
7727 9656 9659 28
7728 9656 9660 28
7729 9661 9662 28
7730 9661 9663 28
7731 9661 9664 28
7732 9661 9665 28
7733 9666 9667 28
7734 9666 9668 28
7735 9666 9669 28
7736 9666 9670 28
7737 9671 9672 28
7738 9671 9673 28
7739 9671 9674 28
7740 9671 9675 28
7741 9676 9677 28
7742 9676 9678 28
7743 9676 9679 28
7744 9676 9680 28
7745 9681 9682 28
7746 9681 9683 28
7747 9681 9684 28
7748 9681 9685 28
7749 9686 9687 28
7750 9686 9688 28
7751 9686 9689 28
7752 9686 9690 28
7753 9691 9692 28
7754 9691 9693 28
7755 9691 9694 28
7756 9691 9695 28
7757 9696 9697 28
7758 9696 9698 28
7759 9696 9699 28
7760 9696 9700 28
7761 9701 9702 28
7762 9701 9703 28
7763 9701 9704 28
7764 9701 9705 28
7765 9706 9707 28
7766 9706 9708 28
7767 9706 9709 28
7768 9706 9710 28
7769 9711 9712 28
7770 9711 9713 28
7771 9711 9714 28
7772 9711 9715 28
7773 9716 9717 28
7774 9716 9718 28
7775 9716 9719 28
7776 9716 9720 28
7777 9721 9722 28
7778 9721 9723 28
7779 9721 9724 28
7780 9721 9725 28
7781 9726 9727 28
7782 9726 9728 28
7783 9726 9729 28
7784 9726 9730 28
7785 9731 9732 28
7786 9731 9733 28
7787 9731 9734 28
7788 9731 9735 28
7789 9736 9737 28
7790 9736 9738 28
7791 9736 9739 28
7792 9736 9740 28
7793 9741 9742 28
7794 9741 9743 28
7795 9741 9744 28
7796 9741 9745 28
7797 9746 9747 28
7798 9746 9748 28
7799 9746 9749 28
7800 9746 9750 28
7801 9751 9752 28
7802 9751 9753 28
7803 9751 9754 28
7804 9751 9755 28
7805 9756 9757 28
7806 9756 9758 28
7807 9756 9759 28
7808 9756 9760 28
7809 9761 9762 28
7810 9761 9763 28
7811 9761 9764 28
7812 9761 9765 28
7813 9766 9767 28
7814 9766 9768 28
7815 9766 9769 28
7816 9766 9770 28
7817 9771 9772 28
7818 9771 9773 28
7819 9771 9774 28
7820 9771 9775 28
7821 9776 9777 28
7822 9776 9778 28
7823 9776 9779 28
7824 9776 9780 28
7825 9781 9782 28
7826 9781 9783 28
7827 9781 9784 28
7828 9781 9785 28
7829 9786 9787 28
7830 9786 9788 28
7831 9786 9789 28
7832 9786 9790 28
7833 9791 9792 28
7834 9791 9793 28
7835 9791 9794 28
7836 9791 9795 28
7837 9796 9797 28
7838 9796 9798 28
7839 9796 9799 28
7840 9796 9800 28
7841 9801 9802 28
7842 9801 9803 28
7843 9801 9804 28
7844 9801 9805 28
7845 9806 9807 28
7846 9806 9808 28
7847 9806 9809 28
7848 9806 9810 28
7849 9811 9812 28
7850 9811 9813 28
7851 9811 9814 28
7852 9811 9815 28
7853 9816 9817 28
7854 9816 9818 28
7855 9816 9819 28
7856 9816 9820 28
7857 9821 9822 28
7858 9821 9823 28
7859 9821 9824 28
7860 9821 9825 28
7861 9826 9827 28
7862 9826 9828 28
7863 9826 9829 28
7864 9826 9830 28
7865 9831 9832 28
7866 9831 9833 28
7867 9831 9834 28
7868 9831 9835 28
7869 9836 9837 28
7870 9836 9838 28
7871 9836 9839 28
7872 9836 9840 28
7873 9841 9842 28
7874 9841 9843 28
7875 9841 9844 28
7876 9841 9845 28
7877 9846 9847 28
7878 9846 9848 28
7879 9846 9849 28
7880 9846 9850 28
7881 9851 9852 28
7882 9851 9853 28
7883 9851 9854 28
7884 9851 9855 28
7885 9856 9857 28
7886 9856 9858 28
7887 9856 9859 28
7888 9856 9860 28
7889 9861 9862 28
7890 9861 9863 28
7891 9861 9864 28
7892 9861 9865 28
7893 9866 9867 28
7894 9866 9868 28
7895 9866 9869 28
7896 9866 9870 28
7897 9871 9872 28
7898 9871 9873 28
7899 9871 9874 28
7900 9871 9875 28
7901 9876 9877 28
7902 9876 9878 28
7903 9876 9879 28
7904 9876 9880 28
7905 9881 9882 28
7906 9881 9883 28
7907 9881 9884 28
7908 9881 9885 28
7909 9886 9887 28
7910 9886 9888 28
7911 9886 9889 28
7912 9886 9890 28
7913 9891 9892 28
7914 9891 9893 28
7915 9891 9894 28
7916 9891 9895 28
7917 9896 9897 28
7918 9896 9898 28
7919 9896 9899 28
7920 9896 9900 28
7921 9901 9902 28
7922 9901 9903 28
7923 9901 9904 28
7924 9901 9905 28
7925 9906 9907 28
7926 9906 9908 28
7927 9906 9909 28
7928 9906 9910 28
7929 9911 9912 28
7930 9911 9913 28
7931 9911 9914 28
7932 9911 9915 28
7933 9916 9917 28
7934 9916 9918 28
7935 9916 9919 28
7936 9916 9920 28
7937 9921 9922 28
7938 9921 9923 28
7939 9921 9924 28
7940 9921 9925 28
7941 9926 9927 28
7942 9926 9928 28
7943 9926 9929 28
7944 9926 9930 28
7945 9931 9932 28
7946 9931 9933 28
7947 9931 9934 28
7948 9931 9935 28
7949 9936 9937 28
7950 9936 9938 28
7951 9936 9939 28
7952 9936 9940 28
7953 9941 9942 28
7954 9941 9943 28
7955 9941 9944 28
7956 9941 9945 28
7957 9946 9947 28
7958 9946 9948 28
7959 9946 9949 28
7960 9946 9950 28
7961 9951 9952 28
7962 9951 9953 28
7963 9951 9954 28
7964 9951 9955 28
7965 9956 9957 28
7966 9956 9958 28
7967 9956 9959 28
7968 9956 9960 28
7969 9961 9962 28
7970 9961 9963 28
7971 9961 9964 28
7972 9961 9965 28
7973 9966 9967 28
7974 9966 9968 28
7975 9966 9969 28
7976 9966 9970 28
7977 9971 9972 28
7978 9971 9973 28
7979 9971 9974 28
7980 9971 9975 28
7981 9976 9977 28
7982 9976 9978 28
7983 9976 9979 28
7984 9976 9980 28
7985 9981 9982 28
7986 9981 9983 28
7987 9981 9984 28
7988 9981 9985 28
7989 9986 9987 28
7990 9986 9988 28
7991 9986 9989 28
7992 9986 9990 28
7993 9991 9992 28
7994 9991 9993 28
7995 9991 9994 28
7996 9991 9995 28
7997 9996 9997 28
7998 9996 9998 28
7999 9996 9999 28
8000 9996 10000 28
8001 10001 10002 28
8002 10001 10003 28
8003 10001 10004 28
8004 10001 10005 28
8005 10006 10007 28
8006 10006 10008 28
8007 10006 10009 28
8008 10006 10010 28
8009 10011 10012 28
8010 10011 10013 28
8011 10011 10014 28
8012 10011 10015 28
8013 10016 10017 28
8014 10016 10018 28
8015 10016 10019 28
8016 10016 10020 28
8017 10021 10022 28
8018 10021 10023 28
8019 10021 10024 28
8020 10021 10025 28
8021 10026 10027 28
8022 10026 10028 28
8023 10026 10029 28
8024 10026 10030 28
8025 10031 10032 28
8026 10031 10033 28
8027 10031 10034 28
8028 10031 10035 28
8029 10036 10037 28
8030 10036 10038 28
8031 10036 10039 28
8032 10036 10040 28
8033 10041 10042 28
8034 10041 10043 28
8035 10041 10044 28
8036 10041 10045 28
8037 10046 10047 28
8038 10046 10048 28
8039 10046 10049 28
8040 10046 10050 28
8041 10051 10052 28
8042 10051 10053 28
8043 10051 10054 28
8044 10051 10055 28
8045 10056 10057 28
8046 10056 10058 28
8047 10056 10059 28
8048 10056 10060 28
8049 10061 10062 28
8050 10061 10063 28
8051 10061 10064 28
8052 10061 10065 28
8053 10066 10067 28
8054 10066 10068 28
8055 10066 10069 28
8056 10066 10070 28
8057 10071 10072 28
8058 10071 10073 28
8059 10071 10074 28
8060 10071 10075 28
8061 10076 10077 28
8062 10076 10078 28
8063 10076 10079 28
8064 10076 10080 28
8065 10081 10082 28
8066 10081 10083 28
8067 10081 10084 28
8068 10081 10085 28
8069 10086 10087 28
8070 10086 10088 28
8071 10086 10089 28
8072 10086 10090 28
8073 10091 10092 28
8074 10091 10093 28
8075 10091 10094 28
8076 10091 10095 28
8077 10096 10097 28
8078 10096 10098 28
8079 10096 10099 28
8080 10096 10100 28
8081 10101 10102 28
8082 10101 10103 28
8083 10101 10104 28
8084 10101 10105 28
8085 10106 10107 28
8086 10106 10108 28
8087 10106 10109 28
8088 10106 10110 28
8089 10111 10112 28
8090 10111 10113 28
8091 10111 10114 28
8092 10111 10115 28
8093 10116 10117 28
8094 10116 10118 28
8095 10116 10119 28
8096 10116 10120 28
8097 10121 10122 28
8098 10121 10123 28
8099 10121 10124 28
8100 10121 10125 28
8101 10126 10127 28
8102 10126 10128 28
8103 10126 10129 28
8104 10126 10130 28
8105 10131 10132 28
8106 10131 10133 28
8107 10131 10134 28
8108 10131 10135 28
8109 10136 10137 28
8110 10136 10138 28
8111 10136 10139 28
8112 10136 10140 28
8113 10141 10142 28
8114 10141 10143 28
8115 10141 10144 28
8116 10141 10145 28
8117 10146 10147 28
8118 10146 10148 28
8119 10146 10149 28
8120 10146 10150 28
8121 10151 10152 28
8122 10151 10153 28
8123 10151 10154 28
8124 10151 10155 28
8125 10156 10157 28
8126 10156 10158 28
8127 10156 10159 28
8128 10156 10160 28
8129 10161 10162 28
8130 10161 10163 28
8131 10161 10164 28
8132 10161 10165 28
8133 10166 10167 28
8134 10166 10168 28
8135 10166 10169 28
8136 10166 10170 28
8137 10171 10172 28
8138 10171 10173 28
8139 10171 10174 28
8140 10171 10175 28
8141 10176 10177 28
8142 10176 10178 28
8143 10176 10179 28
8144 10176 10180 28
8145 10181 10182 28
8146 10181 10183 28
8147 10181 10184 28
8148 10181 10185 28
8149 10186 10187 28
8150 10186 10188 28
8151 10186 10189 28
8152 10186 10190 28
8153 10191 10192 28
8154 10191 10193 28
8155 10191 10194 28
8156 10191 10195 28
8157 10196 10197 28
8158 10196 10198 28
8159 10196 10199 28
8160 10196 10200 28
8161 10201 10202 28
8162 10201 10203 28
8163 10201 10204 28
8164 10201 10205 28
8165 10206 10207 28
8166 10206 10208 28
8167 10206 10209 28
8168 10206 10210 28
8169 10211 10212 28
8170 10211 10213 28
8171 10211 10214 28
8172 10211 10215 28
8173 10216 10217 28
8174 10216 10218 28
8175 10216 10219 28
8176 10216 10220 28
8177 10221 10222 28
8178 10221 10223 28
8179 10221 10224 28
8180 10221 10225 28
8181 10226 10227 28
8182 10226 10228 28
8183 10226 10229 28
8184 10226 10230 28
8185 10231 10232 28
8186 10231 10233 28
8187 10231 10234 28
8188 10231 10235 28
8189 10236 10237 28
8190 10236 10238 28
8191 10236 10239 28
8192 10236 10240 28
8193 10241 10242 28
8194 10241 10243 28
8195 10241 10244 28
8196 10241 10245 28
8197 10246 10247 28
8198 10246 10248 28
8199 10246 10249 28
8200 10246 10250 28
8201 10251 10252 28
8202 10251 10253 28
8203 10251 10254 28
8204 10251 10255 28
8205 10256 10257 28
8206 10256 10258 28
8207 10256 10259 28
8208 10256 10260 28
8209 10261 10262 28
8210 10261 10263 28
8211 10261 10264 28
8212 10261 10265 28
8213 10266 10267 28
8214 10266 10268 28
8215 10266 10269 28
8216 10266 10270 28
8217 10271 10272 28
8218 10271 10273 28
8219 10271 10274 28
8220 10271 10275 28
8221 10276 10277 28
8222 10276 10278 28
8223 10276 10279 28
8224 10276 10280 28
8225 10281 10282 28
8226 10281 10283 28
8227 10281 10284 28
8228 10281 10285 28
8229 10286 10287 28
8230 10286 10288 28
8231 10286 10289 28
8232 10286 10290 28
8233 10291 10292 28
8234 10291 10293 28
8235 10291 10294 28
8236 10291 10295 28
8237 10296 10297 28
8238 10296 10298 28
8239 10296 10299 28
8240 10296 10300 28
8241 10301 10302 28
8242 10301 10303 28
8243 10301 10304 28
8244 10301 10305 28
8245 10306 10307 28
8246 10306 10308 28
8247 10306 10309 28
8248 10306 10310 28
8249 10311 10312 28
8250 10311 10313 28
8251 10311 10314 28
8252 10311 10315 28
8253 10316 10317 28
8254 10316 10318 28
8255 10316 10319 28
8256 10316 10320 28
8257 10321 10322 28
8258 10321 10323 28
8259 10321 10324 28
8260 10321 10325 28
8261 10326 10327 28
8262 10326 10328 28
8263 10326 10329 28
8264 10326 10330 28
8265 10331 10332 28
8266 10331 10333 28
8267 10331 10334 28
8268 10331 10335 28
8269 10336 10337 28
8270 10336 10338 28
8271 10336 10339 28
8272 10336 10340 28
8273 10341 10342 28
8274 10341 10343 28
8275 10341 10344 28
8276 10341 10345 28
8277 10346 10347 28
8278 10346 10348 28
8279 10346 10349 28
8280 10346 10350 28
8281 10351 10352 28
8282 10351 10353 28
8283 10351 10354 28
8284 10351 10355 28
8285 10356 10357 28
8286 10356 10358 28
8287 10356 10359 28
8288 10356 10360 28
8289 10361 10362 28
8290 10361 10363 28
8291 10361 10364 28
8292 10361 10365 28
8293 10366 10367 28
8294 10366 10368 28
8295 10366 10369 28
8296 10366 10370 28
8297 10371 10372 28
8298 10371 10373 28
8299 10371 10374 28
8300 10371 10375 28
8301 10376 10377 28
8302 10376 10378 28
8303 10376 10379 28
8304 10376 10380 28
8305 10381 10382 28
8306 10381 10383 28
8307 10381 10384 28
8308 10381 10385 28
8309 10386 10387 28
8310 10386 10388 28
8311 10386 10389 28
8312 10386 10390 28
8313 10391 10392 28
8314 10391 10393 28
8315 10391 10394 28
8316 10391 10395 28
8317 10396 10397 28
8318 10396 10398 28
8319 10396 10399 28
8320 10396 10400 28
8321 10401 10402 28
8322 10401 10403 28
8323 10401 10404 28
8324 10401 10405 28
8325 10406 10407 28
8326 10406 10408 28
8327 10406 10409 28
8328 10406 10410 28
8329 10411 10412 28
8330 10411 10413 28
8331 10411 10414 28
8332 10411 10415 28
8333 10416 10417 28
8334 10416 10418 28
8335 10416 10419 28
8336 10416 10420 28
8337 10421 10422 28
8338 10421 10423 28
8339 10421 10424 28
8340 10421 10425 28
8341 10426 10427 28
8342 10426 10428 28
8343 10426 10429 28
8344 10426 10430 28
8345 10431 10432 28
8346 10431 10433 28
8347 10431 10434 28
8348 10431 10435 28
8349 10436 10437 28
8350 10436 10438 28
8351 10436 10439 28
8352 10436 10440 28
8353 10441 10442 28
8354 10441 10443 28
8355 10441 10444 28
8356 10441 10445 28
8357 10446 10447 28
8358 10446 10448 28
8359 10446 10449 28
8360 10446 10450 28
8361 10451 10452 28
8362 10451 10453 28
8363 10451 10454 28
8364 10451 10455 28
8365 10456 10457 28
8366 10456 10458 28
8367 10456 10459 28
8368 10456 10460 28
8369 10461 10462 28
8370 10461 10463 28
8371 10461 10464 28
8372 10461 10465 28
8373 10466 10467 28
8374 10466 10468 28
8375 10466 10469 28
8376 10466 10470 28
8377 10471 10472 28
8378 10471 10473 28
8379 10471 10474 28
8380 10471 10475 28
8381 10476 10477 28
8382 10476 10478 28
8383 10476 10479 28
8384 10476 10480 28
8385 10481 10482 28
8386 10481 10483 28
8387 10481 10484 28
8388 10481 10485 28
8389 10486 10487 28
8390 10486 10488 28
8391 10486 10489 28
8392 10486 10490 28
8393 10491 10492 28
8394 10491 10493 28
8395 10491 10494 28
8396 10491 10495 28
8397 10496 10497 28
8398 10496 10498 28
8399 10496 10499 28
8400 10496 10500 28
8401 10501 10502 28
8402 10501 10503 28
8403 10501 10504 28
8404 10501 10505 28
8405 10506 10507 28
8406 10506 10508 28
8407 10506 10509 28
8408 10506 10510 28
8409 10511 10512 28
8410 10511 10513 28
8411 10511 10514 28
8412 10511 10515 28
8413 10516 10517 28
8414 10516 10518 28
8415 10516 10519 28
8416 10516 10520 28
8417 10521 10522 28
8418 10521 10523 28
8419 10521 10524 28
8420 10521 10525 28
8421 10526 10527 28
8422 10526 10528 28
8423 10526 10529 28
8424 10526 10530 28
8425 10531 10532 28
8426 10531 10533 28
8427 10531 10534 28
8428 10531 10535 28
8429 10536 10537 28
8430 10536 10538 28
8431 10536 10539 28
8432 10536 10540 28
8433 10541 10542 28
8434 10541 10543 28
8435 10541 10544 28
8436 10541 10545 28
8437 10546 10547 28
8438 10546 10548 28
8439 10546 10549 28
8440 10546 10550 28
8441 10551 10552 28
8442 10551 10553 28
8443 10551 10554 28
8444 10551 10555 28
8445 10556 10557 28
8446 10556 10558 28
8447 10556 10559 28
8448 10556 10560 28
8449 10561 10562 28
8450 10561 10563 28
8451 10561 10564 28
8452 10561 10565 28
8453 10566 10567 28
8454 10566 10568 28
8455 10566 10569 28
8456 10566 10570 28
8457 10571 10572 28
8458 10571 10573 28
8459 10571 10574 28
8460 10571 10575 28
8461 10576 10577 28
8462 10576 10578 28
8463 10576 10579 28
8464 10576 10580 28
8465 10581 10582 28
8466 10581 10583 28
8467 10581 10584 28
8468 10581 10585 28
8469 10586 10587 28
8470 10586 10588 28
8471 10586 10589 28
8472 10586 10590 28
8473 10591 10592 28
8474 10591 10593 28
8475 10591 10594 28
8476 10591 10595 28
8477 10596 10597 28
8478 10596 10598 28
8479 10596 10599 28
8480 10596 10600 28
8481 10601 10602 28
8482 10601 10603 28
8483 10601 10604 28
8484 10601 10605 28
8485 10606 10607 28
8486 10606 10608 28
8487 10606 10609 28
8488 10606 10610 28
8489 10611 10612 28
8490 10611 10613 28
8491 10611 10614 28
8492 10611 10615 28
8493 10616 10617 28
8494 10616 10618 28
8495 10616 10619 28
8496 10616 10620 28
8497 10621 10622 28
8498 10621 10623 28
8499 10621 10624 28
8500 10621 10625 28
8501 10626 10627 28
8502 10626 10628 28
8503 10626 10629 28
8504 10626 10630 28
8505 10631 10632 28
8506 10631 10633 28
8507 10631 10634 28
8508 10631 10635 28
8509 10636 10637 28
8510 10636 10638 28
8511 10636 10639 28
8512 10636 10640 28
8513 10641 10642 28
8514 10641 10643 28
8515 10641 10644 28
8516 10641 10645 28
8517 10646 10647 28
8518 10646 10648 28
8519 10646 10649 28
8520 10646 10650 28
8521 10651 10652 28
8522 10651 10653 28
8523 10651 10654 28
8524 10651 10655 28
8525 10656 10657 28
8526 10656 10658 28
8527 10656 10659 28
8528 10656 10660 28
8529 10661 10662 28
8530 10661 10663 28
8531 10661 10664 28
8532 10661 10665 28
8533 10666 10667 28
8534 10666 10668 28
8535 10666 10669 28
8536 10666 10670 28
8537 10671 10672 28
8538 10671 10673 28
8539 10671 10674 28
8540 10671 10675 28
8541 10676 10677 28
8542 10676 10678 28
8543 10676 10679 28
8544 10676 10680 28
8545 10681 10682 28
8546 10681 10683 28
8547 10681 10684 28
8548 10681 10685 28
8549 10686 10687 28
8550 10686 10688 28
8551 10686 10689 28
8552 10686 10690 28
8553 10691 10692 28
8554 10691 10693 28
8555 10691 10694 28
8556 10691 10695 28
8557 10696 10697 28
8558 10696 10698 28
8559 10696 10699 28
8560 10696 10700 28
8561 10701 10702 28
8562 10701 10703 28
8563 10701 10704 28
8564 10701 10705 28
8565 10706 10707 28
8566 10706 10708 28
8567 10706 10709 28
8568 10706 10710 28
8569 10711 10712 28
8570 10711 10713 28
8571 10711 10714 28
8572 10711 10715 28
8573 10716 10717 28
8574 10716 10718 28
8575 10716 10719 28
8576 10716 10720 28
8577 10721 10722 28
8578 10721 10723 28
8579 10721 10724 28
8580 10721 10725 28
8581 10726 10727 28
8582 10726 10728 28
8583 10726 10729 28
8584 10726 10730 28
8585 10731 10732 28
8586 10731 10733 28
8587 10731 10734 28
8588 10731 10735 28
8589 10736 10737 28
8590 10736 10738 28
8591 10736 10739 28
8592 10736 10740 28
8593 10741 10742 28
8594 10741 10743 28
8595 10741 10744 28
8596 10741 10745 28
8597 10746 10747 28
8598 10746 10748 28
8599 10746 10749 28
8600 10746 10750 28
8601 10751 10752 28
8602 10751 10753 28
8603 10751 10754 28
8604 10751 10755 28
8605 10756 10757 28
8606 10756 10758 28
8607 10756 10759 28
8608 10756 10760 28
8609 10761 10762 28
8610 10761 10763 28
8611 10761 10764 28
8612 10761 10765 28
8613 10766 10767 28
8614 10766 10768 28
8615 10766 10769 28
8616 10766 10770 28
8617 10771 10772 28
8618 10771 10773 28
8619 10771 10774 28
8620 10771 10775 28
8621 10776 10777 28
8622 10776 10778 28
8623 10776 10779 28
8624 10776 10780 28
8625 10781 10782 28
8626 10781 10783 28
8627 10781 10784 28
8628 10781 10785 28
8629 10786 10787 28
8630 10786 10788 28
8631 10786 10789 28
8632 10786 10790 28
8633 10791 10792 28
8634 10791 10793 28
8635 10791 10794 28
8636 10791 10795 28
8637 10796 10797 28
8638 10796 10798 28
8639 10796 10799 28
8640 10796 10800 28
8641 10801 10802 28
8642 10801 10803 28
8643 10801 10804 28
8644 10801 10805 28
8645 10806 10807 28
8646 10806 10808 28
8647 10806 10809 28
8648 10806 10810 28
8649 10811 10812 28
8650 10811 10813 28
8651 10811 10814 28
8652 10811 10815 28
8653 10816 10817 28
8654 10816 10818 28
8655 10816 10819 28
8656 10816 10820 28
8657 10821 10822 28
8658 10821 10823 28
8659 10821 10824 28
8660 10821 10825 28
8661 10826 10827 28
8662 10826 10828 28
8663 10826 10829 28
8664 10826 10830 28
8665 10831 10832 28
8666 10831 10833 28
8667 10831 10834 28
8668 10831 10835 28
8669 10836 10837 28
8670 10836 10838 28
8671 10836 10839 28
8672 10836 10840 28
8673 10841 10842 28
8674 10841 10843 28
8675 10841 10844 28
8676 10841 10845 28
8677 10846 10847 28
8678 10846 10848 28
8679 10846 10849 28
8680 10846 10850 28
8681 10851 10852 28
8682 10851 10853 28
8683 10851 10854 28
8684 10851 10855 28
8685 10856 10857 28
8686 10856 10858 28
8687 10856 10859 28
8688 10856 10860 28
8689 10861 10862 28
8690 10861 10863 28
8691 10861 10864 28
8692 10861 10865 28
8693 10866 10867 28
8694 10866 10868 28
8695 10866 10869 28
8696 10866 10870 28
8697 10871 10872 28
8698 10871 10873 28
8699 10871 10874 28
8700 10871 10875 28
8701 10876 10877 28
8702 10876 10878 28
8703 10876 10879 28
8704 10876 10880 28
8705 10881 10882 28
8706 10881 10883 28
8707 10881 10884 28
8708 10881 10885 28
8709 10886 10887 28
8710 10886 10888 28
8711 10886 10889 28
8712 10886 10890 28
8713 10891 10892 28
8714 10891 10893 28
8715 10891 10894 28
8716 10891 10895 28
8717 10896 10897 28
8718 10896 10898 28
8719 10896 10899 28
8720 10896 10900 28
8721 10901 10902 28
8722 10901 10903 28
8723 10901 10904 28
8724 10901 10905 28
8725 10906 10907 28
8726 10906 10908 28
8727 10906 10909 28
8728 10906 10910 28
8729 10911 10912 28
8730 10911 10913 28
8731 10911 10914 28
8732 10911 10915 28
8733 10916 10917 28
8734 10916 10918 28
8735 10916 10919 28
8736 10916 10920 28
8737 10921 10922 28
8738 10921 10923 28
8739 10921 10924 28
8740 10921 10925 28
8741 10926 10927 28
8742 10926 10928 28
8743 10926 10929 28
8744 10926 10930 28
8745 10931 10932 28
8746 10931 10933 28
8747 10931 10934 28
8748 10931 10935 28
8749 10936 10937 28
8750 10936 10938 28
8751 10936 10939 28
8752 10936 10940 28
8753 10941 10942 28
8754 10941 10943 28
8755 10941 10944 28
8756 10941 10945 28
8757 10946 10947 28
8758 10946 10948 28
8759 10946 10949 28
8760 10946 10950 28
8761 10951 10952 28
8762 10951 10953 28
8763 10951 10954 28
8764 10951 10955 28
8765 10956 10957 28
8766 10956 10958 28
8767 10956 10959 28
8768 10956 10960 28
8769 10961 10962 28
8770 10961 10963 28
8771 10961 10964 28
8772 10961 10965 28
8773 10966 10967 28
8774 10966 10968 28
8775 10966 10969 28
8776 10966 10970 28
8777 10971 10972 28
8778 10971 10973 28
8779 10971 10974 28
8780 10971 10975 28
8781 10976 10977 28
8782 10976 10978 28
8783 10976 10979 28
8784 10976 10980 28
8785 10981 10982 28
8786 10981 10983 28
8787 10981 10984 28
8788 10981 10985 28
8789 10986 10987 28
8790 10986 10988 28
8791 10986 10989 28
8792 10986 10990 28
8793 10991 10992 28
8794 10991 10993 28
8795 10991 10994 28
8796 10991 10995 28
8797 10996 10997 28
8798 10996 10998 28
8799 10996 10999 28
8800 10996 11000 28
8801 11001 11002 28
8802 11001 11003 28
8803 11001 11004 28
8804 11001 11005 28
8805 11006 11007 28
8806 11006 11008 28
8807 11006 11009 28
8808 11006 11010 28
8809 11011 11012 28
8810 11011 11013 28
8811 11011 11014 28
8812 11011 11015 28
8813 11016 11017 28
8814 11016 11018 28
8815 11016 11019 28
8816 11016 11020 28
8817 11021 11022 28
8818 11021 11023 28
8819 11021 11024 28
8820 11021 11025 28
8821 11026 11027 28
8822 11026 11028 28
8823 11026 11029 28
8824 11026 11030 28
8825 11031 11032 28
8826 11031 11033 28
8827 11031 11034 28
8828 11031 11035 28
8829 11036 11037 28
8830 11036 11038 28
8831 11036 11039 28
8832 11036 11040 28
8833 11041 11042 28
8834 11041 11043 28
8835 11041 11044 28
8836 11041 11045 28
8837 11046 11047 28
8838 11046 11048 28
8839 11046 11049 28
8840 11046 11050 28
8841 11051 11052 28
8842 11051 11053 28
8843 11051 11054 28
8844 11051 11055 28
8845 11056 11057 28
8846 11056 11058 28
8847 11056 11059 28
8848 11056 11060 28
8849 11061 11062 28
8850 11061 11063 28
8851 11061 11064 28
8852 11061 11065 28
8853 11066 11067 28
8854 11066 11068 28
8855 11066 11069 28
8856 11066 11070 28
8857 11071 11072 28
8858 11071 11073 28
8859 11071 11074 28
8860 11071 11075 28
8861 11076 11077 28
8862 11076 11078 28
8863 11076 11079 28
8864 11076 11080 28
8865 11081 11082 28
8866 11081 11083 28
8867 11081 11084 28
8868 11081 11085 28
8869 11086 11087 28
8870 11086 11088 28
8871 11086 11089 28
8872 11086 11090 28
8873 11091 11092 28
8874 11091 11093 28
8875 11091 11094 28
8876 11091 11095 28
8877 11096 11097 28
8878 11096 11098 28
8879 11096 11099 28
8880 11096 11100 28
8881 11101 11102 28
8882 11101 11103 28
8883 11101 11104 28
8884 11101 11105 28
8885 11106 11107 28
8886 11106 11108 28
8887 11106 11109 28
8888 11106 11110 28
8889 11111 11112 28
8890 11111 11113 28
8891 11111 11114 28
8892 11111 11115 28
8893 11116 11117 28
8894 11116 11118 28
8895 11116 11119 28
8896 11116 11120 28
8897 11121 11122 28
8898 11121 11123 28
8899 11121 11124 28
8900 11121 11125 28
8901 11126 11127 28
8902 11126 11128 28
8903 11126 11129 28
8904 11126 11130 28
8905 11131 11132 28
8906 11131 11133 28
8907 11131 11134 28
8908 11131 11135 28
8909 11136 11137 28
8910 11136 11138 28
8911 11136 11139 28
8912 11136 11140 28
8913 11141 11142 28
8914 11141 11143 28
8915 11141 11144 28
8916 11141 11145 28
8917 11146 11147 28
8918 11146 11148 28
8919 11146 11149 28
8920 11146 11150 28
8921 11151 11152 28
8922 11151 11153 28
8923 11151 11154 28
8924 11151 11155 28
8925 11156 11157 28
8926 11156 11158 28
8927 11156 11159 28
8928 11156 11160 28
8929 11161 11162 28
8930 11161 11163 28
8931 11161 11164 28
8932 11161 11165 28
8933 11166 11167 28
8934 11166 11168 28
8935 11166 11169 28
8936 11166 11170 28
8937 11171 11172 28
8938 11171 11173 28
8939 11171 11174 28
8940 11171 11175 28
8941 11176 11177 28
8942 11176 11178 28
8943 11176 11179 28
8944 11176 11180 28
8945 11181 11182 28
8946 11181 11183 28
8947 11181 11184 28
8948 11181 11185 28
8949 11186 11187 28
8950 11186 11188 28
8951 11186 11189 28
8952 11186 11190 28
8953 11191 11192 28
8954 11191 11193 28
8955 11191 11194 28
8956 11191 11195 28
8957 11196 11197 28
8958 11196 11198 28
8959 11196 11199 28
8960 11196 11200 28
8961 11201 11202 28
8962 11201 11203 28
8963 11201 11204 28
8964 11201 11205 28
8965 11206 11207 28
8966 11206 11208 28
8967 11206 11209 28
8968 11206 11210 28
8969 11211 11212 28
8970 11211 11213 28
8971 11211 11214 28
8972 11211 11215 28
8973 11216 11217 28
8974 11216 11218 28
8975 11216 11219 28
8976 11216 11220 28
8977 11221 11222 28
8978 11221 11223 28
8979 11221 11224 28
8980 11221 11225 28
8981 11226 11227 28
8982 11226 11228 28
8983 11226 11229 28
8984 11226 11230 28
8985 11231 11232 28
8986 11231 11233 28
8987 11231 11234 28
8988 11231 11235 28
8989 11236 11237 28
8990 11236 11238 28
8991 11236 11239 28
8992 11236 11240 28
8993 11241 11242 28
8994 11241 11243 28
8995 11241 11244 28
8996 11241 11245 28
8997 11246 11247 28
8998 11246 11248 28
8999 11246 11249 28
9000 11246 11250 28
9001 11251 11252 28
9002 11251 11253 28
9003 11251 11254 28
9004 11251 11255 28
9005 11256 11257 28
9006 11256 11258 28
9007 11256 11259 28
9008 11256 11260 28
9009 11261 11262 28
9010 11261 11263 28
9011 11261 11264 28
9012 11261 11265 28
9013 11266 11267 28
9014 11266 11268 28
9015 11266 11269 28
9016 11266 11270 28
9017 11271 11272 28
9018 11271 11273 28
9019 11271 11274 28
9020 11271 11275 28
9021 11276 11277 28
9022 11276 11278 28
9023 11276 11279 28
9024 11276 11280 28
9025 11281 11282 28
9026 11281 11283 28
9027 11281 11284 28
9028 11281 11285 28
9029 11286 11287 28
9030 11286 11288 28
9031 11286 11289 28
9032 11286 11290 28
9033 11291 11292 28
9034 11291 11293 28
9035 11291 11294 28
9036 11291 11295 28
9037 11296 11297 28
9038 11296 11298 28
9039 11296 11299 28
9040 11296 11300 28
9041 11301 11302 28
9042 11301 11303 28
9043 11301 11304 28
9044 11301 11305 28
9045 11306 11307 28
9046 11306 11308 28
9047 11306 11309 28
9048 11306 11310 28
9049 11311 11312 28
9050 11311 11313 28
9051 11311 11314 28
9052 11311 11315 28
9053 11316 11317 28
9054 11316 11318 28
9055 11316 11319 28
9056 11316 11320 28
9057 11321 11322 28
9058 11321 11323 28
9059 11321 11324 28
9060 11321 11325 28
9061 11326 11327 28
9062 11326 11328 28
9063 11326 11329 28
9064 11326 11330 28
9065 11331 11332 28
9066 11331 11333 28
9067 11331 11334 28
9068 11331 11335 28
9069 11336 11337 28
9070 11336 11338 28
9071 11336 11339 28
9072 11336 11340 28
9073 11341 11342 28
9074 11341 11343 28
9075 11341 11344 28
9076 11341 11345 28
9077 11346 11347 28
9078 11346 11348 28
9079 11346 11349 28
9080 11346 11350 28
9081 11351 11352 28
9082 11351 11353 28
9083 11351 11354 28
9084 11351 11355 28
9085 11356 11357 28
9086 11356 11358 28
9087 11356 11359 28
9088 11356 11360 28
9089 11361 11362 28
9090 11361 11363 28
9091 11361 11364 28
9092 11361 11365 28
9093 11366 11367 28
9094 11366 11368 28
9095 11366 11369 28
9096 11366 11370 28
9097 11371 11372 28
9098 11371 11373 28
9099 11371 11374 28
9100 11371 11375 28
9101 11376 11377 28
9102 11376 11378 28
9103 11376 11379 28
9104 11376 11380 28
9105 11381 11382 28
9106 11381 11383 28
9107 11381 11384 28
9108 11381 11385 28
9109 11386 11387 28
9110 11386 11388 28
9111 11386 11389 28
9112 11386 11390 28
9113 11391 11392 28
9114 11391 11393 28
9115 11391 11394 28
9116 11391 11395 28
9117 11396 11397 28
9118 11396 11398 28
9119 11396 11399 28
9120 11396 11400 28
9121 11401 11402 28
9122 11401 11403 28
9123 11401 11404 28
9124 11401 11405 28
9125 11406 11407 28
9126 11406 11408 28
9127 11406 11409 28
9128 11406 11410 28
9129 11411 11412 28
9130 11411 11413 28
9131 11411 11414 28
9132 11411 11415 28
9133 11416 11417 28
9134 11416 11418 28
9135 11416 11419 28
9136 11416 11420 28
9137 11421 11422 28
9138 11421 11423 28
9139 11421 11424 28
9140 11421 11425 28
9141 11426 11427 28
9142 11426 11428 28
9143 11426 11429 28
9144 11426 11430 28
9145 11431 11432 28
9146 11431 11433 28
9147 11431 11434 28
9148 11431 11435 28
9149 11436 11437 28
9150 11436 11438 28
9151 11436 11439 28
9152 11436 11440 28
9153 11441 11442 28
9154 11441 11443 28
9155 11441 11444 28
9156 11441 11445 28
9157 11446 11447 28
9158 11446 11448 28
9159 11446 11449 28
9160 11446 11450 28
9161 11451 11452 28
9162 11451 11453 28
9163 11451 11454 28
9164 11451 11455 28
9165 11456 11457 28
9166 11456 11458 28
9167 11456 11459 28
9168 11456 11460 28
9169 11461 11462 28
9170 11461 11463 28
9171 11461 11464 28
9172 11461 11465 28
9173 11466 11467 28
9174 11466 11468 28
9175 11466 11469 28
9176 11466 11470 28
9177 11471 11472 28
9178 11471 11473 28
9179 11471 11474 28
9180 11471 11475 28
9181 11476 11477 28
9182 11476 11478 28
9183 11476 11479 28
9184 11476 11480 28
9185 11481 11482 28
9186 11481 11483 28
9187 11481 11484 28
9188 11481 11485 28
9189 11486 11487 28
9190 11486 11488 28
9191 11486 11489 28
9192 11486 11490 28
9193 11491 11492 28
9194 11491 11493 28
9195 11491 11494 28
9196 11491 11495 28
9197 11496 11497 28
9198 11496 11498 28
9199 11496 11499 28
9200 11496 11500 28
9201 11501 11502 28
9202 11501 11503 28
9203 11501 11504 28
9204 11501 11505 28
9205 11506 11507 28
9206 11506 11508 28
9207 11506 11509 28
9208 11506 11510 28
9209 11511 11512 28
9210 11511 11513 28
9211 11511 11514 28
9212 11511 11515 28
9213 11516 11517 28
9214 11516 11518 28
9215 11516 11519 28
9216 11516 11520 28
9217 11521 11522 28
9218 11521 11523 28
9219 11521 11524 28
9220 11521 11525 28
9221 11526 11527 28
9222 11526 11528 28
9223 11526 11529 28
9224 11526 11530 28
9225 11531 11532 28
9226 11531 11533 28
9227 11531 11534 28
9228 11531 11535 28
9229 11536 11537 28
9230 11536 11538 28
9231 11536 11539 28
9232 11536 11540 28
9233 11541 11542 28
9234 11541 11543 28
9235 11541 11544 28
9236 11541 11545 28
9237 11546 11547 28
9238 11546 11548 28
9239 11546 11549 28
9240 11546 11550 28
9241 11551 11552 28
9242 11551 11553 28
9243 11551 11554 28
9244 11551 11555 28
9245 11556 11557 28
9246 11556 11558 28
9247 11556 11559 28
9248 11556 11560 28
9249 11561 11562 28
9250 11561 11563 28
9251 11561 11564 28
9252 11561 11565 28
9253 11566 11567 28
9254 11566 11568 28
9255 11566 11569 28
9256 11566 11570 28
9257 11571 11572 28
9258 11571 11573 28
9259 11571 11574 28
9260 11571 11575 28
9261 11576 11577 28
9262 11576 11578 28
9263 11576 11579 28
9264 11576 11580 28
9265 11581 11582 28
9266 11581 11583 28
9267 11581 11584 28
9268 11581 11585 28
9269 11586 11587 28
9270 11586 11588 28
9271 11586 11589 28
9272 11586 11590 28
9273 11591 11592 28
9274 11591 11593 28
9275 11591 11594 28
9276 11591 11595 28
9277 11596 11597 28
9278 11596 11598 28
9279 11596 11599 28
9280 11596 11600 28
9281 11601 11602 28
9282 11601 11603 28
9283 11601 11604 28
9284 11601 11605 28
9285 11606 11607 28
9286 11606 11608 28
9287 11606 11609 28
9288 11606 11610 28
9289 11611 11612 28
9290 11611 11613 28
9291 11611 11614 28
9292 11611 11615 28
9293 11616 11617 28
9294 11616 11618 28
9295 11616 11619 28
9296 11616 11620 28
9297 11621 11622 28
9298 11621 11623 28
9299 11621 11624 28
9300 11621 11625 28
9301 11626 11627 28
9302 11626 11628 28
9303 11626 11629 28
9304 11626 11630 28
9305 11631 11632 28
9306 11631 11633 28
9307 11631 11634 28
9308 11631 11635 28
9309 11636 11637 28
9310 11636 11638 28
9311 11636 11639 28
9312 11636 11640 28
9313 11641 11642 28
9314 11641 11643 28
9315 11641 11644 28
9316 11641 11645 28
9317 11646 11647 28
9318 11646 11648 28
9319 11646 11649 28
9320 11646 11650 28
9321 11651 11652 28
9322 11651 11653 28
9323 11651 11654 28
9324 11651 11655 28
9325 11656 11657 28
9326 11656 11658 28
9327 11656 11659 28
9328 11656 11660 28
9329 11661 11662 28
9330 11661 11663 28
9331 11661 11664 28
9332 11661 11665 28
9333 11666 11667 28
9334 11666 11668 28
9335 11666 11669 28
9336 11666 11670 28
9337 11671 11672 28
9338 11671 11673 28
9339 11671 11674 28
9340 11671 11675 28
9341 11676 11677 28
9342 11676 11678 28
9343 11676 11679 28
9344 11676 11680 28
9345 11681 11682 28
9346 11681 11683 28
9347 11681 11684 28
9348 11681 11685 28
9349 11686 11687 28
9350 11686 11688 28
9351 11686 11689 28
9352 11686 11690 28
9353 11691 11692 28
9354 11691 11693 28
9355 11691 11694 28
9356 11691 11695 28
9357 11696 11697 28
9358 11696 11698 28
9359 11696 11699 28
9360 11696 11700 28
9361 11701 11702 28
9362 11701 11703 28
9363 11701 11704 28
9364 11701 11705 28
9365 11706 11707 28
9366 11706 11708 28
9367 11706 11709 28
9368 11706 11710 28
9369 11711 11712 28
9370 11711 11713 28
9371 11711 11714 28
9372 11711 11715 28
9373 11716 11717 28
9374 11716 11718 28
9375 11716 11719 28
9376 11716 11720 28
9377 11721 11722 28
9378 11721 11723 28
9379 11721 11724 28
9380 11721 11725 28
9381 11726 11727 28
9382 11726 11728 28
9383 11726 11729 28
9384 11726 11730 28
9385 11731 11732 28
9386 11731 11733 28
9387 11731 11734 28
9388 11731 11735 28
9389 11736 11737 28
9390 11736 11738 28
9391 11736 11739 28
9392 11736 11740 28
9393 11741 11742 28
9394 11741 11743 28
9395 11741 11744 28
9396 11741 11745 28
9397 11746 11747 28
9398 11746 11748 28
9399 11746 11749 28
9400 11746 11750 28
9401 11751 11752 28
9402 11751 11753 28
9403 11751 11754 28
9404 11751 11755 28
9405 11756 11757 28
9406 11756 11758 28
9407 11756 11759 28
9408 11756 11760 28
9409 11761 11762 28
9410 11761 11763 28
9411 11761 11764 28
9412 11761 11765 28
9413 11766 11767 28
9414 11766 11768 28
9415 11766 11769 28
9416 11766 11770 28
9417 11771 11772 28
9418 11771 11773 28
9419 11771 11774 28
9420 11771 11775 28
9421 11776 11777 28
9422 11776 11778 28
9423 11776 11779 28
9424 11776 11780 28
9425 11781 11782 28
9426 11781 11783 28
9427 11781 11784 28
9428 11781 11785 28
9429 11786 11787 28
9430 11786 11788 28
9431 11786 11789 28
9432 11786 11790 28
9433 11791 11792 28
9434 11791 11793 28
9435 11791 11794 28
9436 11791 11795 28
9437 11796 11797 28
9438 11796 11798 28
9439 11796 11799 28
9440 11796 11800 28
9441 11801 11802 28
9442 11801 11803 28
9443 11801 11804 28
9444 11801 11805 28
9445 11806 11807 28
9446 11806 11808 28
9447 11806 11809 28
9448 11806 11810 28
9449 11811 11812 28
9450 11811 11813 28
9451 11811 11814 28
9452 11811 11815 28
9453 11816 11817 28
9454 11816 11818 28
9455 11816 11819 28
9456 11816 11820 28
9457 11821 11822 28
9458 11821 11823 28
9459 11821 11824 28
9460 11821 11825 28
9461 11826 11827 28
9462 11826 11828 28
9463 11826 11829 28
9464 11826 11830 28
9465 11831 11832 28
9466 11831 11833 28
9467 11831 11834 28
9468 11831 11835 28
9469 11836 11837 28
9470 11836 11838 28
9471 11836 11839 28
9472 11836 11840 28
9473 11841 11842 28
9474 11841 11843 28
9475 11841 11844 28
9476 11841 11845 28
9477 11846 11847 28
9478 11846 11848 28
9479 11846 11849 28
9480 11846 11850 28
9481 11851 11852 28
9482 11851 11853 28
9483 11851 11854 28
9484 11851 11855 28
9485 11856 11857 28
9486 11856 11858 28
9487 11856 11859 28
9488 11856 11860 28
9489 11861 11862 28
9490 11861 11863 28
9491 11861 11864 28
9492 11861 11865 28
9493 11866 11867 28
9494 11866 11868 28
9495 11866 11869 28
9496 11866 11870 28
9497 11871 11872 28
9498 11871 11873 28
9499 11871 11874 28
9500 11871 11875 28
9501 11876 11877 28
9502 11876 11878 28
9503 11876 11879 28
9504 11876 11880 28
9505 11881 11882 28
9506 11881 11883 28
9507 11881 11884 28
9508 11881 11885 28
9509 11886 11887 28
9510 11886 11888 28
9511 11886 11889 28
9512 11886 11890 28
9513 11891 11892 28
9514 11891 11893 28
9515 11891 11894 28
9516 11891 11895 28
9517 11896 11897 28
9518 11896 11898 28
9519 11896 11899 28
9520 11896 11900 28
9521 11901 11902 28
9522 11901 11903 28
9523 11901 11904 28
9524 11901 11905 28
9525 11906 11907 28
9526 11906 11908 28
9527 11906 11909 28
9528 11906 11910 28
9529 11911 11912 28
9530 11911 11913 28
9531 11911 11914 28
9532 11911 11915 28
9533 11916 11917 28
9534 11916 11918 28
9535 11916 11919 28
9536 11916 11920 28
9537 11921 11922 28
9538 11921 11923 28
9539 11921 11924 28
9540 11921 11925 28
9541 11926 11927 28
9542 11926 11928 28
9543 11926 11929 28
9544 11926 11930 28
9545 11931 11932 28
9546 11931 11933 28
9547 11931 11934 28
9548 11931 11935 28
9549 11936 11937 28
9550 11936 11938 28
9551 11936 11939 28
9552 11936 11940 28
9553 11941 11942 28
9554 11941 11943 28
9555 11941 11944 28
9556 11941 11945 28
9557 11946 11947 28
9558 11946 11948 28
9559 11946 11949 28
9560 11946 11950 28
9561 11951 11952 28
9562 11951 11953 28
9563 11951 11954 28
9564 11951 11955 28
9565 11956 11957 28
9566 11956 11958 28
9567 11956 11959 28
9568 11956 11960 28
9569 11961 11962 28
9570 11961 11963 28
9571 11961 11964 28
9572 11961 11965 28
9573 11966 11967 28
9574 11966 11968 28
9575 11966 11969 28
9576 11966 11970 28
9577 11971 11972 28
9578 11971 11973 28
9579 11971 11974 28
9580 11971 11975 28
9581 11976 11977 28
9582 11976 11978 28
9583 11976 11979 28
9584 11976 11980 28
9585 11981 11982 28
9586 11981 11983 28
9587 11981 11984 28
9588 11981 11985 28
9589 11986 11987 28
9590 11986 11988 28
9591 11986 11989 28
9592 11986 11990 28
9593 11991 11992 28
9594 11991 11993 28
9595 11991 11994 28
9596 11991 11995 28
9597 11996 11997 28
9598 11996 11998 28
9599 11996 11999 28
9600 11996 12000 28
9601 12001 12002 28
9602 12001 12003 28
9603 12001 12004 28
9604 12001 12005 28
9605 12006 12007 28
9606 12006 12008 28
9607 12006 12009 28
9608 12006 12010 28
9609 12011 12012 28
9610 12011 12013 28
9611 12011 12014 28
9612 12011 12015 28
9613 12016 12017 28
9614 12016 12018 28
9615 12016 12019 28
9616 12016 12020 28
9617 12021 12022 28
9618 12021 12023 28
9619 12021 12024 28
9620 12021 12025 28
9621 12026 12027 28
9622 12026 12028 28
9623 12026 12029 28
9624 12026 12030 28
9625 12031 12032 28
9626 12031 12033 28
9627 12031 12034 28
9628 12031 12035 28
9629 12036 12037 28
9630 12036 12038 28
9631 12036 12039 28
9632 12036 12040 28
9633 12041 12042 28
9634 12041 12043 28
9635 12041 12044 28
9636 12041 12045 28
9637 12046 12047 28
9638 12046 12048 28
9639 12046 12049 28
9640 12046 12050 28
9641 12051 12052 28
9642 12051 12053 28
9643 12051 12054 28
9644 12051 12055 28
9645 12056 12057 28
9646 12056 12058 28
9647 12056 12059 28
9648 12056 12060 28
9649 12061 12062 28
9650 12061 12063 28
9651 12061 12064 28
9652 12061 12065 28
9653 12066 12067 28
9654 12066 12068 28
9655 12066 12069 28
9656 12066 12070 28
9657 12071 12072 28
9658 12071 12073 28
9659 12071 12074 28
9660 12071 12075 28
9661 12076 12077 28
9662 12076 12078 28
9663 12076 12079 28
9664 12076 12080 28
9665 12081 12082 28
9666 12081 12083 28
9667 12081 12084 28
9668 12081 12085 28
9669 12086 12087 28
9670 12086 12088 28
9671 12086 12089 28
9672 12086 12090 28
9673 12091 12092 28
9674 12091 12093 28
9675 12091 12094 28
9676 12091 12095 28
9677 12096 12097 28
9678 12096 12098 28
9679 12096 12099 28
9680 12096 12100 28
9681 12101 12102 28
9682 12101 12103 28
9683 12101 12104 28
9684 12101 12105 28
9685 12106 12107 28
9686 12106 12108 28
9687 12106 12109 28
9688 12106 12110 28
9689 12111 12112 28
9690 12111 12113 28
9691 12111 12114 28
9692 12111 12115 28
9693 12116 12117 28
9694 12116 12118 28
9695 12116 12119 28
9696 12116 12120 28
9697 12121 12122 28
9698 12121 12123 28
9699 12121 12124 28
9700 12121 12125 28
9701 12126 12127 28
9702 12126 12128 28
9703 12126 12129 28
9704 12126 12130 28
9705 12131 12132 28
9706 12131 12133 28
9707 12131 12134 28
9708 12131 12135 28
9709 12136 12137 28
9710 12136 12138 28
9711 12136 12139 28
9712 12136 12140 28
9713 12141 12142 28
9714 12141 12143 28
9715 12141 12144 28
9716 12141 12145 28
9717 12146 12147 28
9718 12146 12148 28
9719 12146 12149 28
9720 12146 12150 28
9721 12151 12152 28
9722 12151 12153 28
9723 12151 12154 28
9724 12151 12155 28
9725 12156 12157 28
9726 12156 12158 28
9727 12156 12159 28
9728 12156 12160 28
9729 12161 12162 28
9730 12161 12163 28
9731 12161 12164 28
9732 12161 12165 28
9733 12166 12167 28
9734 12166 12168 28
9735 12166 12169 28
9736 12166 12170 28
9737 12171 12172 28
9738 12171 12173 28
9739 12171 12174 28
9740 12171 12175 28
9741 12176 12177 28
9742 12176 12178 28
9743 12176 12179 28
9744 12176 12180 28
9745 12181 12182 28
9746 12181 12183 28
9747 12181 12184 28
9748 12181 12185 28
9749 12186 12187 28
9750 12186 12188 28
9751 12186 12189 28
9752 12186 12190 28
9753 12191 12192 28
9754 12191 12193 28
9755 12191 12194 28
9756 12191 12195 28
9757 12196 12197 28
9758 12196 12198 28
9759 12196 12199 28
9760 12196 12200 28
9761 12201 12202 28
9762 12201 12203 28
9763 12201 12204 28
9764 12201 12205 28
9765 12206 12207 28
9766 12206 12208 28
9767 12206 12209 28
9768 12206 12210 28
9769 12211 12212 28
9770 12211 12213 28
9771 12211 12214 28
9772 12211 12215 28
9773 12216 12217 28
9774 12216 12218 28
9775 12216 12219 28
9776 12216 12220 28
9777 12221 12222 28
9778 12221 12223 28
9779 12221 12224 28
9780 12221 12225 28
9781 12226 12227 28
9782 12226 12228 28
9783 12226 12229 28
9784 12226 12230 28
9785 12231 12232 28
9786 12231 12233 28
9787 12231 12234 28
9788 12231 12235 28
9789 12236 12237 28
9790 12236 12238 28
9791 12236 12239 28
9792 12236 12240 28
9793 12241 12242 28
9794 12241 12243 28
9795 12241 12244 28
9796 12241 12245 28
9797 12246 12247 28
9798 12246 12248 28
9799 12246 12249 28
9800 12246 12250 28
9801 12251 12252 28
9802 12251 12253 28
9803 12251 12254 28
9804 12251 12255 28
9805 12256 12257 28
9806 12256 12258 28
9807 12256 12259 28
9808 12256 12260 28
9809 12261 12262 28
9810 12261 12263 28
9811 12261 12264 28
9812 12261 12265 28
9813 12266 12267 28
9814 12266 12268 28
9815 12266 12269 28
9816 12266 12270 28
9817 12271 12272 28
9818 12271 12273 28
9819 12271 12274 28
9820 12271 12275 28
9821 12276 12277 28
9822 12276 12278 28
9823 12276 12279 28
9824 12276 12280 28
9825 12281 12282 28
9826 12281 12283 28
9827 12281 12284 28
9828 12281 12285 28
9829 12286 12287 28
9830 12286 12288 28
9831 12286 12289 28
9832 12286 12290 28
9833 12291 12292 28
9834 12291 12293 28
9835 12291 12294 28
9836 12291 12295 28
9837 12296 12297 28
9838 12296 12298 28
9839 12296 12299 28
9840 12296 12300 28
9841 12301 12302 28
9842 12301 12303 28
9843 12301 12304 28
9844 12301 12305 28
9845 12306 12307 28
9846 12306 12308 28
9847 12306 12309 28
9848 12306 12310 28
9849 12311 12312 28
9850 12311 12313 28
9851 12311 12314 28
9852 12311 12315 28
9853 12316 12317 28
9854 12316 12318 28
9855 12316 12319 28
9856 12316 12320 28
9857 12321 12322 28
9858 12321 12323 28
9859 12321 12324 28
9860 12321 12325 28
9861 12326 12327 28
9862 12326 12328 28
9863 12326 12329 28
9864 12326 12330 28
9865 12331 12332 28
9866 12331 12333 28
9867 12331 12334 28
9868 12331 12335 28
9869 12336 12337 28
9870 12336 12338 28
9871 12336 12339 28
9872 12336 12340 28
9873 12341 12342 28
9874 12341 12343 28
9875 12341 12344 28
9876 12341 12345 28
9877 12346 12347 28
9878 12346 12348 28
9879 12346 12349 28
9880 12346 12350 28
9881 12351 12352 28
9882 12351 12353 28
9883 12351 12354 28
9884 12351 12355 28
9885 12356 12357 28
9886 12356 12358 28
9887 12356 12359 28
9888 12356 12360 28
9889 12361 12362 28
9890 12361 12363 28
9891 12361 12364 28
9892 12361 12365 28
9893 12366 12367 28
9894 12366 12368 28
9895 12366 12369 28
9896 12366 12370 28
9897 12371 12372 28
9898 12371 12373 28
9899 12371 12374 28
9900 12371 12375 28
9901 12376 12377 28
9902 12376 12378 28
9903 12376 12379 28
9904 12376 12380 28
9905 12381 12382 28
9906 12381 12383 28
9907 12381 12384 28
9908 12381 12385 28
9909 12386 12387 28
9910 12386 12388 28
9911 12386 12389 28
9912 12386 12390 28
9913 12391 12392 28
9914 12391 12393 28
9915 12391 12394 28
9916 12391 12395 28
9917 12396 12397 28
9918 12396 12398 28
9919 12396 12399 28
9920 12396 12400 28
9921 12401 12402 28
9922 12401 12403 28
9923 12401 12404 28
9924 12401 12405 28
9925 12406 12407 28
9926 12406 12408 28
9927 12406 12409 28
9928 12406 12410 28
9929 12411 12412 28
9930 12411 12413 28
9931 12411 12414 28
9932 12411 12415 28
9933 12416 12417 28
9934 12416 12418 28
9935 12416 12419 28
9936 12416 12420 28
9937 12421 12422 28
9938 12421 12423 28
9939 12421 12424 28
9940 12421 12425 28
9941 12426 12427 28
9942 12426 12428 28
9943 12426 12429 28
9944 12426 12430 28
9945 12431 12432 28
9946 12431 12433 28
9947 12431 12434 28
9948 12431 12435 28
9949 12436 12437 28
9950 12436 12438 28
9951 12436 12439 28
9952 12436 12440 28
9953 12441 12442 28
9954 12441 12443 28
9955 12441 12444 28
9956 12441 12445 28
9957 12446 12447 28
9958 12446 12448 28
9959 12446 12449 28
9960 12446 12450 28
9961 12451 12452 28
9962 12451 12453 28
9963 12451 12454 28
9964 12451 12455 28
9965 12456 12457 28
9966 12456 12458 28
9967 12456 12459 28
9968 12456 12460 28
9969 12461 12462 28
9970 12461 12463 28
9971 12461 12464 28
9972 12461 12465 28
9973 12466 12467 28
9974 12466 12468 28
9975 12466 12469 28
9976 12466 12470 28
9977 12471 12472 28
9978 12471 12473 28
9979 12471 12474 28
9980 12471 12475 28
9981 12476 12477 28
9982 12476 12478 28
9983 12476 12479 28
9984 12476 12480 28
9985 12481 12482 28
9986 12481 12483 28
9987 12481 12484 28
9988 12481 12485 28
9989 12486 12487 28
9990 12486 12488 28
9991 12486 12489 28
9992 12486 12490 28
9993 12491 12492 28
9994 12491 12493 28
9995 12491 12494 28
9996 12491 12495 28
9997 12496 12497 28
9998 12496 12498 28
9999 12496 12499 28
10000 12496 12500 28
10001 12501 12502 28
10002 12501 12503 28
10003 12501 12504 28
10004 12501 12505 28
10005 12506 12507 28
10006 12506 12508 28
10007 12506 12509 28
10008 12506 12510 28
10009 12511 12512 28
10010 12511 12513 28
10011 12511 12514 28
10012 12511 12515 28
10013 12516 12517 28
10014 12516 12518 28
10015 12516 12519 28
10016 12516 12520 28
10017 12521 12522 28
10018 12521 12523 28
10019 12521 12524 28
10020 12521 12525 28
10021 12526 12527 28
10022 12526 12528 28
10023 12526 12529 28
10024 12526 12530 28
10025 12531 12532 28
10026 12531 12533 28
10027 12531 12534 28
10028 12531 12535 28
10029 12536 12537 28
10030 12536 12538 28
10031 12536 12539 28
10032 12536 12540 28
10033 12541 12542 28
10034 12541 12543 28
10035 12541 12544 28
10036 12541 12545 28
10037 12546 12547 28
10038 12546 12548 28
10039 12546 12549 28
10040 12546 12550 28
10041 12551 12552 28
10042 12551 12553 28
10043 12551 12554 28
10044 12551 12555 28
10045 12556 12557 28
10046 12556 12558 28
10047 12556 12559 28
10048 12556 12560 28
10049 12561 12562 28
10050 12561 12563 28
10051 12561 12564 28
10052 12561 12565 28
10053 12566 12567 28
10054 12566 12568 28
10055 12566 12569 28
10056 12566 12570 28
10057 12571 12572 28
10058 12571 12573 28
10059 12571 12574 28
10060 12571 12575 28
10061 12576 12577 28
10062 12576 12578 28
10063 12576 12579 28
10064 12576 12580 28
10065 12581 12582 28
10066 12581 12583 28
10067 12581 12584 28
10068 12581 12585 28
10069 12586 12587 28
10070 12586 12588 28
10071 12586 12589 28
10072 12586 12590 28
10073 12591 12592 28
10074 12591 12593 28
10075 12591 12594 28
10076 12591 12595 28
10077 12596 12597 28
10078 12596 12598 28
10079 12596 12599 28
10080 12596 12600 28
10081 12601 12602 28
10082 12601 12603 28
10083 12601 12604 28
10084 12601 12605 28
10085 12606 12607 28
10086 12606 12608 28
10087 12606 12609 28
10088 12606 12610 28
10089 12611 12612 28
10090 12611 12613 28
10091 12611 12614 28
10092 12611 12615 28
10093 12616 12617 28
10094 12616 12618 28
10095 12616 12619 28
10096 12616 12620 28
10097 12621 12622 28
10098 12621 12623 28
10099 12621 12624 28
10100 12621 12625 28
10101 12626 12627 28
10102 12626 12628 28
10103 12626 12629 28
10104 12626 12630 28
10105 12631 12632 28
10106 12631 12633 28
10107 12631 12634 28
10108 12631 12635 28
10109 12636 12637 28
10110 12636 12638 28
10111 12636 12639 28
10112 12636 12640 28
10113 12641 12642 28
10114 12641 12643 28
10115 12641 12644 28
10116 12641 12645 28
10117 12646 12647 28
10118 12646 12648 28
10119 12646 12649 28
10120 12646 12650 28
10121 12651 12652 28
10122 12651 12653 28
10123 12651 12654 28
10124 12651 12655 28
10125 12656 12657 28
10126 12656 12658 28
10127 12656 12659 28
10128 12656 12660 28
10129 12661 12662 28
10130 12661 12663 28
10131 12661 12664 28
10132 12661 12665 28
10133 12666 12667 28
10134 12666 12668 28
10135 12666 12669 28
10136 12666 12670 28
10137 12671 12672 28
10138 12671 12673 28
10139 12671 12674 28
10140 12671 12675 28
10141 12676 12677 28
10142 12676 12678 28
10143 12676 12679 28
10144 12676 12680 28
10145 12681 12682 28
10146 12681 12683 28
10147 12681 12684 28
10148 12681 12685 28
10149 12686 12687 28
10150 12686 12688 28
10151 12686 12689 28
10152 12686 12690 28
10153 12691 12692 28
10154 12691 12693 28
10155 12691 12694 28
10156 12691 12695 28
10157 12696 12697 28
10158 12696 12698 28
10159 12696 12699 28
10160 12696 12700 28
10161 12701 12702 28
10162 12701 12703 28
10163 12701 12704 28
10164 12701 12705 28
10165 12706 12707 28
10166 12706 12708 28
10167 12706 12709 28
10168 12706 12710 28
10169 12711 12712 28
10170 12711 12713 28
10171 12711 12714 28
10172 12711 12715 28
10173 12716 12717 28
10174 12716 12718 28
10175 12716 12719 28
10176 12716 12720 28
10177 12721 12722 28
10178 12721 12723 28
10179 12721 12724 28
10180 12721 12725 28
10181 12726 12727 28
10182 12726 12728 28
10183 12726 12729 28
10184 12726 12730 28
10185 12731 12732 28
10186 12731 12733 28
10187 12731 12734 28
10188 12731 12735 28
10189 12736 12737 28
10190 12736 12738 28
10191 12736 12739 28
10192 12736 12740 28
10193 12741 12742 28
10194 12741 12743 28
10195 12741 12744 28
10196 12741 12745 28
10197 12746 12747 28
10198 12746 12748 28
10199 12746 12749 28
10200 12746 12750 28
10201 12751 12752 28
10202 12751 12753 28
10203 12751 12754 28
10204 12751 12755 28
10205 12756 12757 28
10206 12756 12758 28
10207 12756 12759 28
10208 12756 12760 28
10209 12761 12762 28
10210 12761 12763 28
10211 12761 12764 28
10212 12761 12765 28
10213 12766 12767 28
10214 12766 12768 28
10215 12766 12769 28
10216 12766 12770 28
10217 12771 12772 28
10218 12771 12773 28
10219 12771 12774 28
10220 12771 12775 28
10221 12776 12777 28
10222 12776 12778 28
10223 12776 12779 28
10224 12776 12780 28
10225 12781 12782 28
10226 12781 12783 28
10227 12781 12784 28
10228 12781 12785 28
10229 12786 12787 28
10230 12786 12788 28
10231 12786 12789 28
10232 12786 12790 28
10233 12791 12792 28
10234 12791 12793 28
10235 12791 12794 28
10236 12791 12795 28
10237 12796 12797 28
10238 12796 12798 28
10239 12796 12799 28
10240 12796 12800 28
10241 12801 12802 28
10242 12801 12803 28
10243 12801 12804 28
10244 12801 12805 28
10245 12806 12807 28
10246 12806 12808 28
10247 12806 12809 28
10248 12806 12810 28
10249 12811 12812 28
10250 12811 12813 28
10251 12811 12814 28
10252 12811 12815 28
10253 12816 12817 28
10254 12816 12818 28
10255 12816 12819 28
10256 12816 12820 28
10257 12821 12822 28
10258 12821 12823 28
10259 12821 12824 28
10260 12821 12825 28
10261 12826 12827 28
10262 12826 12828 28
10263 12826 12829 28
10264 12826 12830 28
10265 12831 12832 28
10266 12831 12833 28
10267 12831 12834 28
10268 12831 12835 28
10269 12836 12837 28
10270 12836 12838 28
10271 12836 12839 28
10272 12836 12840 28
10273 12841 12842 28
10274 12841 12843 28
10275 12841 12844 28
10276 12841 12845 28
10277 12846 12847 28
10278 12846 12848 28
10279 12846 12849 28
10280 12846 12850 28
10281 12851 12852 28
10282 12851 12853 28
10283 12851 12854 28
10284 12851 12855 28
10285 12856 12857 28
10286 12856 12858 28
10287 12856 12859 28
10288 12856 12860 28
10289 12861 12862 28
10290 12861 12863 28
10291 12861 12864 28
10292 12861 12865 28
10293 12866 12867 28
10294 12866 12868 28
10295 12866 12869 28
10296 12866 12870 28
10297 12871 12872 28
10298 12871 12873 28
10299 12871 12874 28
10300 12871 12875 28
10301 12876 12877 28
10302 12876 12878 28
10303 12876 12879 28
10304 12876 12880 28
10305 12881 12882 28
10306 12881 12883 28
10307 12881 12884 28
10308 12881 12885 28
10309 12886 12887 28
10310 12886 12888 28
10311 12886 12889 28
10312 12886 12890 28
10313 12891 12892 28
10314 12891 12893 28
10315 12891 12894 28
10316 12891 12895 28
10317 12896 12897 28
10318 12896 12898 28
10319 12896 12899 28
10320 12896 12900 28
10321 12901 12902 28
10322 12901 12903 28
10323 12901 12904 28
10324 12901 12905 28
10325 12906 12907 28
10326 12906 12908 28
10327 12906 12909 28
10328 12906 12910 28
10329 12911 12912 28
10330 12911 12913 28
10331 12911 12914 28
10332 12911 12915 28
10333 12916 12917 28
10334 12916 12918 28
10335 12916 12919 28
10336 12916 12920 28
10337 12921 12922 28
10338 12921 12923 28
10339 12921 12924 28
10340 12921 12925 28
10341 12926 12927 28
10342 12926 12928 28
10343 12926 12929 28
10344 12926 12930 28
10345 12931 12932 28
10346 12931 12933 28
10347 12931 12934 28
10348 12931 12935 28
10349 12936 12937 28
10350 12936 12938 28
10351 12936 12939 28
10352 12936 12940 28
10353 12941 12942 28
10354 12941 12943 28
10355 12941 12944 28
10356 12941 12945 28
10357 12946 12947 28
10358 12946 12948 28
10359 12946 12949 28
10360 12946 12950 28
10361 12951 12952 28
10362 12951 12953 28
10363 12951 12954 28
10364 12951 12955 28
10365 12956 12957 28
10366 12956 12958 28
10367 12956 12959 28
10368 12956 12960 28
10369 12961 12962 28
10370 12961 12963 28
10371 12961 12964 28
10372 12961 12965 28
10373 12966 12967 28
10374 12966 12968 28
10375 12966 12969 28
10376 12966 12970 28
10377 12971 12972 28
10378 12971 12973 28
10379 12971 12974 28
10380 12971 12975 28
10381 12976 12977 28
10382 12976 12978 28
10383 12976 12979 28
10384 12976 12980 28
10385 12981 12982 28
10386 12981 12983 28
10387 12981 12984 28
10388 12981 12985 28
10389 12986 12987 28
10390 12986 12988 28
10391 12986 12989 28
10392 12986 12990 28
10393 12991 12992 28
10394 12991 12993 28
10395 12991 12994 28
10396 12991 12995 28
10397 12996 12997 28
10398 12996 12998 28
10399 12996 12999 28
10400 12996 13000 28
10401 13001 13002 28
10402 13001 13003 28
10403 13001 13004 28
10404 13001 13005 28
10405 13006 13007 28
10406 13006 13008 28
10407 13006 13009 28
10408 13006 13010 28
10409 13011 13012 28
10410 13011 13013 28
10411 13011 13014 28
10412 13011 13015 28
10413 13016 13017 28
10414 13016 13018 28
10415 13016 13019 28
10416 13016 13020 28
10417 13021 13022 28
10418 13021 13023 28
10419 13021 13024 28
10420 13021 13025 28
10421 13026 13027 28
10422 13026 13028 28
10423 13026 13029 28
10424 13026 13030 28
10425 13031 13032 28
10426 13031 13033 28
10427 13031 13034 28
10428 13031 13035 28
10429 13036 13037 28
10430 13036 13038 28
10431 13036 13039 28
10432 13036 13040 28
10433 13041 13042 28
10434 13041 13043 28
10435 13041 13044 28
10436 13041 13045 28
10437 13046 13047 28
10438 13046 13048 28
10439 13046 13049 28
10440 13046 13050 28
10441 13051 13052 28
10442 13051 13053 28
10443 13051 13054 28
10444 13051 13055 28
10445 13056 13057 28
10446 13056 13058 28
10447 13056 13059 28
10448 13056 13060 28
10449 13061 13062 28
10450 13061 13063 28
10451 13061 13064 28
10452 13061 13065 28
10453 13066 13067 28
10454 13066 13068 28
10455 13066 13069 28
10456 13066 13070 28
10457 13071 13072 28
10458 13071 13073 28
10459 13071 13074 28
10460 13071 13075 28
10461 13076 13077 28
10462 13076 13078 28
10463 13076 13079 28
10464 13076 13080 28
10465 13081 13082 28
10466 13081 13083 28
10467 13081 13084 28
10468 13081 13085 28
10469 13086 13087 28
10470 13086 13088 28
10471 13086 13089 28
10472 13086 13090 28
10473 13091 13092 28
10474 13091 13093 28
10475 13091 13094 28
10476 13091 13095 28
10477 13096 13097 28
10478 13096 13098 28
10479 13096 13099 28
10480 13096 13100 28
10481 13101 13102 28
10482 13101 13103 28
10483 13101 13104 28
10484 13101 13105 28
10485 13106 13107 28
10486 13106 13108 28
10487 13106 13109 28
10488 13106 13110 28
10489 13111 13112 28
10490 13111 13113 28
10491 13111 13114 28
10492 13111 13115 28
10493 13116 13117 28
10494 13116 13118 28
10495 13116 13119 28
10496 13116 13120 28
10497 13121 13122 28
10498 13121 13123 28
10499 13121 13124 28
10500 13121 13125 28
10501 13126 13127 28
10502 13126 13128 28
10503 13126 13129 28
10504 13126 13130 28
10505 13131 13132 28
10506 13131 13133 28
10507 13131 13134 28
10508 13131 13135 28
10509 13136 13137 28
10510 13136 13138 28
10511 13136 13139 28
10512 13136 13140 28
10513 13141 13142 28
10514 13141 13143 28
10515 13141 13144 28
10516 13141 13145 28
10517 13146 13147 28
10518 13146 13148 28
10519 13146 13149 28
10520 13146 13150 28
10521 13151 13152 28
10522 13151 13153 28
10523 13151 13154 28
10524 13151 13155 28
10525 13156 13157 28
10526 13156 13158 28
10527 13156 13159 28
10528 13156 13160 28
10529 13161 13162 28
10530 13161 13163 28
10531 13161 13164 28
10532 13161 13165 28
10533 13166 13167 28
10534 13166 13168 28
10535 13166 13169 28
10536 13166 13170 28
10537 13171 13172 28
10538 13171 13173 28
10539 13171 13174 28
10540 13171 13175 28
10541 13176 13177 28
10542 13176 13178 28
10543 13176 13179 28
10544 13176 13180 28
10545 13181 13182 28
10546 13181 13183 28
10547 13181 13184 28
10548 13181 13185 28
10549 13186 13187 28
10550 13186 13188 28
10551 13186 13189 28
10552 13186 13190 28
10553 13191 13192 28
10554 13191 13193 28
10555 13191 13194 28
10556 13191 13195 28
10557 13196 13197 28
10558 13196 13198 28
10559 13196 13199 28
10560 13196 13200 28
10561 13201 13202 28
10562 13201 13203 28
10563 13201 13204 28
10564 13201 13205 28
10565 13206 13207 28
10566 13206 13208 28
10567 13206 13209 28
10568 13206 13210 28
10569 13211 13212 28
10570 13211 13213 28
10571 13211 13214 28
10572 13211 13215 28
10573 13216 13217 28
10574 13216 13218 28
10575 13216 13219 28
10576 13216 13220 28
10577 13221 13222 28
10578 13221 13223 28
10579 13221 13224 28
10580 13221 13225 28
10581 13226 13227 28
10582 13226 13228 28
10583 13226 13229 28
10584 13226 13230 28
10585 13231 13232 28
10586 13231 13233 28
10587 13231 13234 28
10588 13231 13235 28
10589 13236 13237 28
10590 13236 13238 28
10591 13236 13239 28
10592 13236 13240 28
10593 13241 13242 28
10594 13241 13243 28
10595 13241 13244 28
10596 13241 13245 28
10597 13246 13247 28
10598 13246 13248 28
10599 13246 13249 28
10600 13246 13250 28
10601 13251 13252 28
10602 13251 13253 28
10603 13251 13254 28
10604 13251 13255 28
10605 13256 13257 28
10606 13256 13258 28
10607 13256 13259 28
10608 13256 13260 28
10609 13261 13262 28
10610 13261 13263 28
10611 13261 13264 28
10612 13261 13265 28
10613 13266 13267 28
10614 13266 13268 28
10615 13266 13269 28
10616 13266 13270 28
10617 13271 13272 28
10618 13271 13273 28
10619 13271 13274 28
10620 13271 13275 28
10621 13276 13277 28
10622 13276 13278 28
10623 13276 13279 28
10624 13276 13280 28
10625 13281 13282 28
10626 13281 13283 28
10627 13281 13284 28
10628 13281 13285 28
10629 13286 13287 28
10630 13286 13288 28
10631 13286 13289 28
10632 13286 13290 28
10633 13291 13292 28
10634 13291 13293 28
10635 13291 13294 28
10636 13291 13295 28
10637 13296 13297 28
10638 13296 13298 28
10639 13296 13299 28
10640 13296 13300 28
10641 13301 13302 28
10642 13301 13303 28
10643 13301 13304 28
10644 13301 13305 28
10645 13306 13307 28
10646 13306 13308 28
10647 13306 13309 28
10648 13306 13310 28
10649 13311 13312 28
10650 13311 13313 28
10651 13311 13314 28
10652 13311 13315 28
10653 13316 13317 28
10654 13316 13318 28
10655 13316 13319 28
10656 13316 13320 28
10657 13321 13322 28
10658 13321 13323 28
10659 13321 13324 28
10660 13321 13325 28
10661 13326 13327 28
10662 13326 13328 28
10663 13326 13329 28
10664 13326 13330 28
10665 13331 13332 28
10666 13331 13333 28
10667 13331 13334 28
10668 13331 13335 28
10669 13336 13337 28
10670 13336 13338 28
10671 13336 13339 28
10672 13336 13340 28
10673 13341 13342 28
10674 13341 13343 28
10675 13341 13344 28
10676 13341 13345 28
10677 13346 13347 28
10678 13346 13348 28
10679 13346 13349 28
10680 13346 13350 28
10681 13351 13352 28
10682 13351 13353 28
10683 13351 13354 28
10684 13351 13355 28
10685 13356 13357 28
10686 13356 13358 28
10687 13356 13359 28
10688 13356 13360 28
10689 13361 13362 28
10690 13361 13363 28
10691 13361 13364 28
10692 13361 13365 28
10693 13366 13367 28
10694 13366 13368 28
10695 13366 13369 28
10696 13366 13370 28
10697 13371 13372 28
10698 13371 13373 28
10699 13371 13374 28
10700 13371 13375 28
10701 13376 13377 28
10702 13376 13378 28
10703 13376 13379 28
10704 13376 13380 28
10705 13381 13382 28
10706 13381 13383 28
10707 13381 13384 28
10708 13381 13385 28
10709 13386 13387 28
10710 13386 13388 28
10711 13386 13389 28
10712 13386 13390 28
10713 13391 13392 28
10714 13391 13393 28
10715 13391 13394 28
10716 13391 13395 28
10717 13396 13397 28
10718 13396 13398 28
10719 13396 13399 28
10720 13396 13400 28
10721 13401 13402 28
10722 13401 13403 28
10723 13401 13404 28
10724 13401 13405 28
10725 13406 13407 28
10726 13406 13408 28
10727 13406 13409 28
10728 13406 13410 28
10729 13411 13412 28
10730 13411 13413 28
10731 13411 13414 28
10732 13411 13415 28
10733 13416 13417 28
10734 13416 13418 28
10735 13416 13419 28
10736 13416 13420 28
10737 13421 13422 28
10738 13421 13423 28
10739 13421 13424 28
10740 13421 13425 28
10741 13426 13427 28
10742 13426 13428 28
10743 13426 13429 28
10744 13426 13430 28
10745 13431 13432 28
10746 13431 13433 28
10747 13431 13434 28
10748 13431 13435 28
10749 13436 13437 28
10750 13436 13438 28
10751 13436 13439 28
10752 13436 13440 28
10753 13441 13442 28
10754 13441 13443 28
10755 13441 13444 28
10756 13441 13445 28
10757 13446 13447 28
10758 13446 13448 28
10759 13446 13449 28
10760 13446 13450 28
10761 13451 13452 28
10762 13451 13453 28
10763 13451 13454 28
10764 13451 13455 28
10765 13456 13457 28
10766 13456 13458 28
10767 13456 13459 28
10768 13456 13460 28
10769 13461 13462 28
10770 13461 13463 28
10771 13461 13464 28
10772 13461 13465 28
10773 13466 13467 28
10774 13466 13468 28
10775 13466 13469 28
10776 13466 13470 28
10777 13471 13472 28
10778 13471 13473 28
10779 13471 13474 28
10780 13471 13475 28
10781 13476 13477 28
10782 13476 13478 28
10783 13476 13479 28
10784 13476 13480 28
10785 13481 13482 28
10786 13481 13483 28
10787 13481 13484 28
10788 13481 13485 28
10789 13486 13487 28
10790 13486 13488 28
10791 13486 13489 28
10792 13486 13490 28
10793 13491 13492 28
10794 13491 13493 28
10795 13491 13494 28
10796 13491 13495 28
10797 13496 13497 28
10798 13496 13498 28
10799 13496 13499 28
10800 13496 13500 28
10801 13501 13502 28
10802 13501 13503 28
10803 13501 13504 28
10804 13501 13505 28
10805 13506 13507 28
10806 13506 13508 28
10807 13506 13509 28
10808 13506 13510 28
10809 13511 13512 28
10810 13511 13513 28
10811 13511 13514 28
10812 13511 13515 28
10813 13516 13517 28
10814 13516 13518 28
10815 13516 13519 28
10816 13516 13520 28
10817 13521 13522 28
10818 13521 13523 28
10819 13521 13524 28
10820 13521 13525 28
10821 13526 13527 28
10822 13526 13528 28
10823 13526 13529 28
10824 13526 13530 28
10825 13531 13532 28
10826 13531 13533 28
10827 13531 13534 28
10828 13531 13535 28
10829 13536 13537 28
10830 13536 13538 28
10831 13536 13539 28
10832 13536 13540 28
10833 13541 13542 28
10834 13541 13543 28
10835 13541 13544 28
10836 13541 13545 28
10837 13546 13547 28
10838 13546 13548 28
10839 13546 13549 28
10840 13546 13550 28
10841 13551 13552 28
10842 13551 13553 28
10843 13551 13554 28
10844 13551 13555 28
10845 13556 13557 28
10846 13556 13558 28
10847 13556 13559 28
10848 13556 13560 28
10849 13561 13562 28
10850 13561 13563 28
10851 13561 13564 28
10852 13561 13565 28
10853 13566 13567 28
10854 13566 13568 28
10855 13566 13569 28
10856 13566 13570 28
10857 13571 13572 28
10858 13571 13573 28
10859 13571 13574 28
10860 13571 13575 28
10861 13576 13577 28
10862 13576 13578 28
10863 13576 13579 28
10864 13576 13580 28
10865 13581 13582 28
10866 13581 13583 28
10867 13581 13584 28
10868 13581 13585 28
10869 13586 13587 28
10870 13586 13588 28
10871 13586 13589 28
10872 13586 13590 28
10873 13591 13592 28
10874 13591 13593 28
10875 13591 13594 28
10876 13591 13595 28
10877 13596 13597 28
10878 13596 13598 28
10879 13596 13599 28
10880 13596 13600 28
10881 13601 13602 28
10882 13601 13603 28
10883 13601 13604 28
10884 13601 13605 28
10885 13606 13607 28
10886 13606 13608 28
10887 13606 13609 28
10888 13606 13610 28
10889 13611 13612 28
10890 13611 13613 28
10891 13611 13614 28
10892 13611 13615 28
10893 13616 13617 28
10894 13616 13618 28
10895 13616 13619 28
10896 13616 13620 28
10897 13621 13622 28
10898 13621 13623 28
10899 13621 13624 28
10900 13621 13625 28
10901 13626 13627 28
10902 13626 13628 28
10903 13626 13629 28
10904 13626 13630 28
10905 13631 13632 28
10906 13631 13633 28
10907 13631 13634 28
10908 13631 13635 28
10909 13636 13637 28
10910 13636 13638 28
10911 13636 13639 28
10912 13636 13640 28
10913 13641 13642 28
10914 13641 13643 28
10915 13641 13644 28
10916 13641 13645 28
10917 13646 13647 28
10918 13646 13648 28
10919 13646 13649 28
10920 13646 13650 28
10921 13651 13652 28
10922 13651 13653 28
10923 13651 13654 28
10924 13651 13655 28
10925 13656 13657 28
10926 13656 13658 28
10927 13656 13659 28
10928 13656 13660 28
10929 13661 13662 28
10930 13661 13663 28
10931 13661 13664 28
10932 13661 13665 28
10933 13666 13667 28
10934 13666 13668 28
10935 13666 13669 28
10936 13666 13670 28
10937 13671 13672 28
10938 13671 13673 28
10939 13671 13674 28
10940 13671 13675 28
10941 13676 13677 28
10942 13676 13678 28
10943 13676 13679 28
10944 13676 13680 28
10945 13681 13682 28
10946 13681 13683 28
10947 13681 13684 28
10948 13681 13685 28
10949 13686 13687 28
10950 13686 13688 28
10951 13686 13689 28
10952 13686 13690 28
10953 13691 13692 28
10954 13691 13693 28
10955 13691 13694 28
10956 13691 13695 28
10957 13696 13697 28
10958 13696 13698 28
10959 13696 13699 28
10960 13696 13700 28
10961 13701 13702 28
10962 13701 13703 28
10963 13701 13704 28
10964 13701 13705 28
10965 13706 13707 28
10966 13706 13708 28
10967 13706 13709 28
10968 13706 13710 28
10969 13711 13712 28
10970 13711 13713 28
10971 13711 13714 28
10972 13711 13715 28
10973 13716 13717 28
10974 13716 13718 28
10975 13716 13719 28
10976 13716 13720 28
10977 13721 13722 28
10978 13721 13723 28
10979 13721 13724 28
10980 13721 13725 28
10981 13726 13727 28
10982 13726 13728 28
10983 13726 13729 28
10984 13726 13730 28
10985 13731 13732 28
10986 13731 13733 28
10987 13731 13734 28
10988 13731 13735 28
10989 13736 13737 28
10990 13736 13738 28
10991 13736 13739 28
10992 13736 13740 28
10993 13741 13742 28
10994 13741 13743 28
10995 13741 13744 28
10996 13741 13745 28
10997 13746 13747 28
10998 13746 13748 28
10999 13746 13749 28
11000 13746 13750 28
11001 13751 13752 28
11002 13751 13753 28
11003 13751 13754 28
11004 13751 13755 28
11005 13756 13757 28
11006 13756 13758 28
11007 13756 13759 28
11008 13756 13760 28
11009 13761 13762 28
11010 13761 13763 28
11011 13761 13764 28
11012 13761 13765 28
11013 13766 13767 28
11014 13766 13768 28
11015 13766 13769 28
11016 13766 13770 28
11017 13771 13772 28
11018 13771 13773 28
11019 13771 13774 28
11020 13771 13775 28
11021 13776 13777 28
11022 13776 13778 28
11023 13776 13779 28
11024 13776 13780 28
11025 13781 13782 28
11026 13781 13783 28
11027 13781 13784 28
11028 13781 13785 28
11029 13786 13787 28
11030 13786 13788 28
11031 13786 13789 28
11032 13786 13790 28
11033 13791 13792 28
11034 13791 13793 28
11035 13791 13794 28
11036 13791 13795 28
11037 13796 13797 28
11038 13796 13798 28
11039 13796 13799 28
11040 13796 13800 28
11041 13801 13802 28
11042 13801 13803 28
11043 13801 13804 28
11044 13801 13805 28
11045 13806 13807 28
11046 13806 13808 28
11047 13806 13809 28
11048 13806 13810 28
11049 13811 13812 28
11050 13811 13813 28
11051 13811 13814 28
11052 13811 13815 28
11053 13816 13817 28
11054 13816 13818 28
11055 13816 13819 28
11056 13816 13820 28
11057 13821 13822 28
11058 13821 13823 28
11059 13821 13824 28
11060 13821 13825 28
11061 13826 13827 28
11062 13826 13828 28
11063 13826 13829 28
11064 13826 13830 28
11065 13831 13832 28
11066 13831 13833 28
11067 13831 13834 28
11068 13831 13835 28
11069 13836 13837 28
11070 13836 13838 28
11071 13836 13839 28
11072 13836 13840 28
11073 13841 13842 28
11074 13841 13843 28
11075 13841 13844 28
11076 13841 13845 28
11077 13846 13847 28
11078 13846 13848 28
11079 13846 13849 28
11080 13846 13850 28
11081 13851 13852 28
11082 13851 13853 28
11083 13851 13854 28
11084 13851 13855 28
11085 13856 13857 28
11086 13856 13858 28
11087 13856 13859 28
11088 13856 13860 28
11089 13861 13862 28
11090 13861 13863 28
11091 13861 13864 28
11092 13861 13865 28
11093 13866 13867 28
11094 13866 13868 28
11095 13866 13869 28
11096 13866 13870 28
11097 13871 13872 28
11098 13871 13873 28
11099 13871 13874 28
11100 13871 13875 28
11101 13876 13877 28
11102 13876 13878 28
11103 13876 13879 28
11104 13876 13880 28
11105 13881 13882 28
11106 13881 13883 28
11107 13881 13884 28
11108 13881 13885 28
11109 13886 13887 28
11110 13886 13888 28
11111 13886 13889 28
11112 13886 13890 28
11113 13891 13892 28
11114 13891 13893 28
11115 13891 13894 28
11116 13891 13895 28
11117 13896 13897 28
11118 13896 13898 28
11119 13896 13899 28
11120 13896 13900 28
11121 13901 13902 28
11122 13901 13903 28
11123 13901 13904 28
11124 13901 13905 28
11125 13906 13907 28
11126 13906 13908 28
11127 13906 13909 28
11128 13906 13910 28
11129 13911 13912 28
11130 13911 13913 28
11131 13911 13914 28
11132 13911 13915 28
11133 13916 13917 28
11134 13916 13918 28
11135 13916 13919 28
11136 13916 13920 28
11137 13921 13922 28
11138 13921 13923 28
11139 13921 13924 28
11140 13921 13925 28
11141 13926 13927 28
11142 13926 13928 28
11143 13926 13929 28
11144 13926 13930 28
11145 13931 13932 28
11146 13931 13933 28
11147 13931 13934 28
11148 13931 13935 28
11149 13936 13937 28
11150 13936 13938 28
11151 13936 13939 28
11152 13936 13940 28
11153 13941 13942 28
11154 13941 13943 28
11155 13941 13944 28
11156 13941 13945 28
11157 13946 13947 28
11158 13946 13948 28
11159 13946 13949 28
11160 13946 13950 28
11161 13951 13952 28
11162 13951 13953 28
11163 13951 13954 28
11164 13951 13955 28
11165 13956 13957 28
11166 13956 13958 28
11167 13956 13959 28
11168 13956 13960 28
11169 13961 13962 28
11170 13961 13963 28
11171 13961 13964 28
11172 13961 13965 28
11173 13966 13967 28
11174 13966 13968 28
11175 13966 13969 28
11176 13966 13970 28
11177 13971 13972 28
11178 13971 13973 28
11179 13971 13974 28
11180 13971 13975 28
11181 13976 13977 28
11182 13976 13978 28
11183 13976 13979 28
11184 13976 13980 28
11185 13981 13982 28
11186 13981 13983 28
11187 13981 13984 28
11188 13981 13985 28
11189 13986 13987 28
11190 13986 13988 28
11191 13986 13989 28
11192 13986 13990 28
11193 13991 13992 28
11194 13991 13993 28
11195 13991 13994 28
11196 13991 13995 28
11197 13996 13997 28
11198 13996 13998 28
11199 13996 13999 28
11200 13996 14000 28
11201 14001 14002 28
11202 14001 14003 28
11203 14001 14004 28
11204 14001 14005 28
11205 14006 14007 28
11206 14006 14008 28
11207 14006 14009 28
11208 14006 14010 28
11209 14011 14012 28
11210 14011 14013 28
11211 14011 14014 28
11212 14011 14015 28
11213 14016 14017 28
11214 14016 14018 28
11215 14016 14019 28
11216 14016 14020 28
11217 14021 14022 28
11218 14021 14023 28
11219 14021 14024 28
11220 14021 14025 28
11221 14026 14027 28
11222 14026 14028 28
11223 14026 14029 28
11224 14026 14030 28
11225 14031 14032 28
11226 14031 14033 28
11227 14031 14034 28
11228 14031 14035 28
11229 14036 14037 28
11230 14036 14038 28
11231 14036 14039 28
11232 14036 14040 28
11233 14041 14042 28
11234 14041 14043 28
11235 14041 14044 28
11236 14041 14045 28
11237 14046 14047 28
11238 14046 14048 28
11239 14046 14049 28
11240 14046 14050 28
11241 14051 14052 28
11242 14051 14053 28
11243 14051 14054 28
11244 14051 14055 28
11245 14056 14057 28
11246 14056 14058 28
11247 14056 14059 28
11248 14056 14060 28
11249 14061 14062 28
11250 14061 14063 28
11251 14061 14064 28
11252 14061 14065 28
11253 14066 14067 28
11254 14066 14068 28
11255 14066 14069 28
11256 14066 14070 28
11257 14071 14072 28
11258 14071 14073 28
11259 14071 14074 28
11260 14071 14075 28
11261 14076 14077 28
11262 14076 14078 28
11263 14076 14079 28
11264 14076 14080 28
11265 14081 14082 28
11266 14081 14083 28
11267 14081 14084 28
11268 14081 14085 28
11269 14086 14087 28
11270 14086 14088 28
11271 14086 14089 28
11272 14086 14090 28
11273 14091 14092 28
11274 14091 14093 28
11275 14091 14094 28
11276 14091 14095 28
11277 14096 14097 28
11278 14096 14098 28
11279 14096 14099 28
11280 14096 14100 28
11281 14101 14102 28
11282 14101 14103 28
11283 14101 14104 28
11284 14101 14105 28
11285 14106 14107 28
11286 14106 14108 28
11287 14106 14109 28
11288 14106 14110 28
11289 14111 14112 28
11290 14111 14113 28
11291 14111 14114 28
11292 14111 14115 28
11293 14116 14117 28
11294 14116 14118 28
11295 14116 14119 28
11296 14116 14120 28
11297 14121 14122 28
11298 14121 14123 28
11299 14121 14124 28
11300 14121 14125 28
11301 14126 14127 28
11302 14126 14128 28
11303 14126 14129 28
11304 14126 14130 28
11305 14131 14132 28
11306 14131 14133 28
11307 14131 14134 28
11308 14131 14135 28
11309 14136 14137 28
11310 14136 14138 28
11311 14136 14139 28
11312 14136 14140 28
11313 14141 14142 28
11314 14141 14143 28
11315 14141 14144 28
11316 14141 14145 28
11317 14146 14147 28
11318 14146 14148 28
11319 14146 14149 28
11320 14146 14150 28
11321 14151 14152 28
11322 14151 14153 28
11323 14151 14154 28
11324 14151 14155 28
11325 14156 14157 28
11326 14156 14158 28
11327 14156 14159 28
11328 14156 14160 28
11329 14161 14162 28
11330 14161 14163 28
11331 14161 14164 28
11332 14161 14165 28
11333 14166 14167 28
11334 14166 14168 28
11335 14166 14169 28
11336 14166 14170 28
11337 14171 14172 28
11338 14171 14173 28
11339 14171 14174 28
11340 14171 14175 28
11341 14176 14177 28
11342 14176 14178 28
11343 14176 14179 28
11344 14176 14180 28
11345 14181 14182 28
11346 14181 14183 28
11347 14181 14184 28
11348 14181 14185 28
11349 14186 14187 28
11350 14186 14188 28
11351 14186 14189 28
11352 14186 14190 28
11353 14191 14192 28
11354 14191 14193 28
11355 14191 14194 28
11356 14191 14195 28
11357 14196 14197 28
11358 14196 14198 28
11359 14196 14199 28
11360 14196 14200 28
11361 14201 14202 28
11362 14201 14203 28
11363 14201 14204 28
11364 14201 14205 28
11365 14206 14207 28
11366 14206 14208 28
11367 14206 14209 28
11368 14206 14210 28
11369 14211 14212 28
11370 14211 14213 28
11371 14211 14214 28
11372 14211 14215 28
11373 14216 14217 28
11374 14216 14218 28
11375 14216 14219 28
11376 14216 14220 28
11377 14221 14222 28
11378 14221 14223 28
11379 14221 14224 28
11380 14221 14225 28
11381 14226 14227 28
11382 14226 14228 28
11383 14226 14229 28
11384 14226 14230 28
11385 14231 14232 28
11386 14231 14233 28
11387 14231 14234 28
11388 14231 14235 28
11389 14236 14237 28
11390 14236 14238 28
11391 14236 14239 28
11392 14236 14240 28
11393 14241 14242 28
11394 14241 14243 28
11395 14241 14244 28
11396 14241 14245 28
11397 14246 14247 28
11398 14246 14248 28
11399 14246 14249 28
11400 14246 14250 28
11401 14251 14252 28
11402 14251 14253 28
11403 14251 14254 28
11404 14251 14255 28
11405 14256 14257 28
11406 14256 14258 28
11407 14256 14259 28
11408 14256 14260 28
11409 14261 14262 28
11410 14261 14263 28
11411 14261 14264 28
11412 14261 14265 28
11413 14266 14267 28
11414 14266 14268 28
11415 14266 14269 28
11416 14266 14270 28
11417 14271 14272 28
11418 14271 14273 28
11419 14271 14274 28
11420 14271 14275 28
11421 14276 14277 28
11422 14276 14278 28
11423 14276 14279 28
11424 14276 14280 28
11425 14281 14282 28
11426 14281 14283 28
11427 14281 14284 28
11428 14281 14285 28
11429 14286 14287 28
11430 14286 14288 28
11431 14286 14289 28
11432 14286 14290 28
11433 14291 14292 28
11434 14291 14293 28
11435 14291 14294 28
11436 14291 14295 28
11437 14296 14297 28
11438 14296 14298 28
11439 14296 14299 28
11440 14296 14300 28
11441 14301 14302 28
11442 14301 14303 28
11443 14301 14304 28
11444 14301 14305 28
11445 14306 14307 28
11446 14306 14308 28
11447 14306 14309 28
11448 14306 14310 28
11449 14311 14312 28
11450 14311 14313 28
11451 14311 14314 28
11452 14311 14315 28
11453 14316 14317 28
11454 14316 14318 28
11455 14316 14319 28
11456 14316 14320 28
11457 14321 14322 28
11458 14321 14323 28
11459 14321 14324 28
11460 14321 14325 28
11461 14326 14327 28
11462 14326 14328 28
11463 14326 14329 28
11464 14326 14330 28
11465 14331 14332 28
11466 14331 14333 28
11467 14331 14334 28
11468 14331 14335 28
11469 14336 14337 28
11470 14336 14338 28
11471 14336 14339 28
11472 14336 14340 28
11473 14341 14342 28
11474 14341 14343 28
11475 14341 14344 28
11476 14341 14345 28
11477 14346 14347 28
11478 14346 14348 28
11479 14346 14349 28
11480 14346 14350 28
11481 14351 14352 28
11482 14351 14353 28
11483 14351 14354 28
11484 14351 14355 28
11485 14356 14357 28
11486 14356 14358 28
11487 14356 14359 28
11488 14356 14360 28
11489 14361 14362 28
11490 14361 14363 28
11491 14361 14364 28
11492 14361 14365 28
11493 14366 14367 28
11494 14366 14368 28
11495 14366 14369 28
11496 14366 14370 28
11497 14371 14372 28
11498 14371 14373 28
11499 14371 14374 28
11500 14371 14375 28
11501 14376 14377 28
11502 14376 14378 28
11503 14376 14379 28
11504 14376 14380 28
11505 14381 14382 28
11506 14381 14383 28
11507 14381 14384 28
11508 14381 14385 28
11509 14386 14387 28
11510 14386 14388 28
11511 14386 14389 28
11512 14386 14390 28
11513 14391 14392 28
11514 14391 14393 28
11515 14391 14394 28
11516 14391 14395 28
11517 14396 14397 28
11518 14396 14398 28
11519 14396 14399 28
11520 14396 14400 28
11521 14401 14402 28
11522 14401 14403 28
11523 14401 14404 28
11524 14401 14405 28
11525 14406 14407 28
11526 14406 14408 28
11527 14406 14409 28
11528 14406 14410 28
11529 14411 14412 28
11530 14411 14413 28
11531 14411 14414 28
11532 14411 14415 28
11533 14416 14417 28
11534 14416 14418 28
11535 14416 14419 28
11536 14416 14420 28
11537 14421 14422 28
11538 14421 14423 28
11539 14421 14424 28
11540 14421 14425 28
11541 14426 14427 28
11542 14426 14428 28
11543 14426 14429 28
11544 14426 14430 28
11545 14431 14432 28
11546 14431 14433 28
11547 14431 14434 28
11548 14431 14435 28
11549 14436 14437 28
11550 14436 14438 28
11551 14436 14439 28
11552 14436 14440 28
11553 14441 14442 28
11554 14441 14443 28
11555 14441 14444 28
11556 14441 14445 28
11557 14446 14447 28
11558 14446 14448 28
11559 14446 14449 28
11560 14446 14450 28
11561 14451 14452 28
11562 14451 14453 28
11563 14451 14454 28
11564 14451 14455 28
11565 14456 14457 28
11566 14456 14458 28
11567 14456 14459 28
11568 14456 14460 28
11569 14461 14462 28
11570 14461 14463 28
11571 14461 14464 28
11572 14461 14465 28
11573 14466 14467 28
11574 14466 14468 28
11575 14466 14469 28
11576 14466 14470 28
11577 14471 14472 28
11578 14471 14473 28
11579 14471 14474 28
11580 14471 14475 28
11581 14476 14477 28
11582 14476 14478 28
11583 14476 14479 28
11584 14476 14480 28
11585 14481 14482 28
11586 14481 14483 28
11587 14481 14484 28
11588 14481 14485 28
11589 14486 14487 28
11590 14486 14488 28
11591 14486 14489 28
11592 14486 14490 28
11593 14491 14492 28
11594 14491 14493 28
11595 14491 14494 28
11596 14491 14495 28
11597 14496 14497 28
11598 14496 14498 28
11599 14496 14499 28
11600 14496 14500 28
11601 14501 14502 28
11602 14501 14503 28
11603 14501 14504 28
11604 14501 14505 28
11605 14506 14507 28
11606 14506 14508 28
11607 14506 14509 28
11608 14506 14510 28
11609 14511 14512 28
11610 14511 14513 28
11611 14511 14514 28
11612 14511 14515 28
11613 14516 14517 28
11614 14516 14518 28
11615 14516 14519 28
11616 14516 14520 28
11617 14521 14522 28
11618 14521 14523 28
11619 14521 14524 28
11620 14521 14525 28
11621 14526 14527 28
11622 14526 14528 28
11623 14526 14529 28
11624 14526 14530 28
11625 14531 14532 28
11626 14531 14533 28
11627 14531 14534 28
11628 14531 14535 28
11629 14536 14537 28
11630 14536 14538 28
11631 14536 14539 28
11632 14536 14540 28
11633 14541 14542 28
11634 14541 14543 28
11635 14541 14544 28
11636 14541 14545 28
11637 14546 14547 28
11638 14546 14548 28
11639 14546 14549 28
11640 14546 14550 28
11641 14551 14552 28
11642 14551 14553 28
11643 14551 14554 28
11644 14551 14555 28
11645 14556 14557 28
11646 14556 14558 28
11647 14556 14559 28
11648 14556 14560 28
11649 14561 14562 28
11650 14561 14563 28
11651 14561 14564 28
11652 14561 14565 28
11653 14566 14567 28
11654 14566 14568 28
11655 14566 14569 28
11656 14566 14570 28
11657 14571 14572 28
11658 14571 14573 28
11659 14571 14574 28
11660 14571 14575 28
11661 14576 14577 28
11662 14576 14578 28
11663 14576 14579 28
11664 14576 14580 28
11665 14581 14582 28
11666 14581 14583 28
11667 14581 14584 28
11668 14581 14585 28
11669 14586 14587 28
11670 14586 14588 28
11671 14586 14589 28
11672 14586 14590 28
11673 14591 14592 28
11674 14591 14593 28
11675 14591 14594 28
11676 14591 14595 28
11677 14596 14597 28
11678 14596 14598 28
11679 14596 14599 28
11680 14596 14600 28
11681 14601 14602 28
11682 14601 14603 28
11683 14601 14604 28
11684 14601 14605 28
11685 14606 14607 28
11686 14606 14608 28
11687 14606 14609 28
11688 14606 14610 28
11689 14611 14612 28
11690 14611 14613 28
11691 14611 14614 28
11692 14611 14615 28
11693 14616 14617 28
11694 14616 14618 28
11695 14616 14619 28
11696 14616 14620 28
11697 14621 14622 28
11698 14621 14623 28
11699 14621 14624 28
11700 14621 14625 28
11701 14626 14627 28
11702 14626 14628 28
11703 14626 14629 28
11704 14626 14630 28
11705 14631 14632 28
11706 14631 14633 28
11707 14631 14634 28
11708 14631 14635 28
11709 14636 14637 28
11710 14636 14638 28
11711 14636 14639 28
11712 14636 14640 28
11713 14641 14642 28
11714 14641 14643 28
11715 14641 14644 28
11716 14641 14645 28
11717 14646 14647 28
11718 14646 14648 28
11719 14646 14649 28
11720 14646 14650 28
11721 14651 14652 28
11722 14651 14653 28
11723 14651 14654 28
11724 14651 14655 28
11725 14656 14657 28
11726 14656 14658 28
11727 14656 14659 28
11728 14656 14660 28
11729 14661 14662 28
11730 14661 14663 28
11731 14661 14664 28
11732 14661 14665 28
11733 14666 14667 28
11734 14666 14668 28
11735 14666 14669 28
11736 14666 14670 28
11737 14671 14672 28
11738 14671 14673 28
11739 14671 14674 28
11740 14671 14675 28
11741 14676 14677 28
11742 14676 14678 28
11743 14676 14679 28
11744 14676 14680 28
11745 14681 14682 28
11746 14681 14683 28
11747 14681 14684 28
11748 14681 14685 28
11749 14686 14687 28
11750 14686 14688 28
11751 14686 14689 28
11752 14686 14690 28
11753 14691 14692 28
11754 14691 14693 28
11755 14691 14694 28
11756 14691 14695 28
11757 14696 14697 28
11758 14696 14698 28
11759 14696 14699 28
11760 14696 14700 28
11761 14701 14702 28
11762 14701 14703 28
11763 14701 14704 28
11764 14701 14705 28
11765 14706 14707 28
11766 14706 14708 28
11767 14706 14709 28
11768 14706 14710 28
11769 14711 14712 28
11770 14711 14713 28
11771 14711 14714 28
11772 14711 14715 28
11773 14716 14717 28
11774 14716 14718 28
11775 14716 14719 28
11776 14716 14720 28
11777 14721 14722 28
11778 14721 14723 28
11779 14721 14724 28
11780 14721 14725 28
11781 14726 14727 28
11782 14726 14728 28
11783 14726 14729 28
11784 14726 14730 28
11785 14731 14732 28
11786 14731 14733 28
11787 14731 14734 28
11788 14731 14735 28
11789 14736 14737 28
11790 14736 14738 28
11791 14736 14739 28
11792 14736 14740 28
11793 14741 14742 28
11794 14741 14743 28
11795 14741 14744 28
11796 14741 14745 28
11797 14746 14747 28
11798 14746 14748 28
11799 14746 14749 28
11800 14746 14750 28
11801 14751 14752 28
11802 14751 14753 28
11803 14751 14754 28
11804 14751 14755 28
11805 14756 14757 28
11806 14756 14758 28
11807 14756 14759 28
11808 14756 14760 28
11809 14761 14762 28
11810 14761 14763 28
11811 14761 14764 28
11812 14761 14765 28
11813 14766 14767 28
11814 14766 14768 28
11815 14766 14769 28
11816 14766 14770 28
11817 14771 14772 28
11818 14771 14773 28
11819 14771 14774 28
11820 14771 14775 28
11821 14776 14777 28
11822 14776 14778 28
11823 14776 14779 28
11824 14776 14780 28
11825 14781 14782 28
11826 14781 14783 28
11827 14781 14784 28
11828 14781 14785 28
11829 14786 14787 28
11830 14786 14788 28
11831 14786 14789 28
11832 14786 14790 28
11833 14791 14792 28
11834 14791 14793 28
11835 14791 14794 28
11836 14791 14795 28
11837 14796 14797 28
11838 14796 14798 28
11839 14796 14799 28
11840 14796 14800 28
11841 14801 14802 28
11842 14801 14803 28
11843 14801 14804 28
11844 14801 14805 28
11845 14806 14807 28
11846 14806 14808 28
11847 14806 14809 28
11848 14806 14810 28
11849 14811 14812 28
11850 14811 14813 28
11851 14811 14814 28
11852 14811 14815 28
11853 14816 14817 28
11854 14816 14818 28
11855 14816 14819 28
11856 14816 14820 28
11857 14821 14822 28
11858 14821 14823 28
11859 14821 14824 28
11860 14821 14825 28
11861 14826 14827 28
11862 14826 14828 28
11863 14826 14829 28
11864 14826 14830 28
11865 14831 14832 28
11866 14831 14833 28
11867 14831 14834 28
11868 14831 14835 28
11869 14836 14837 28
11870 14836 14838 28
11871 14836 14839 28
11872 14836 14840 28
11873 14841 14842 28
11874 14841 14843 28
11875 14841 14844 28
11876 14841 14845 28
11877 14846 14847 28
11878 14846 14848 28
11879 14846 14849 28
11880 14846 14850 28
11881 14851 14852 28
11882 14851 14853 28
11883 14851 14854 28
11884 14851 14855 28
11885 14856 14857 28
11886 14856 14858 28
11887 14856 14859 28
11888 14856 14860 28
11889 14861 14862 28
11890 14861 14863 28
11891 14861 14864 28
11892 14861 14865 28
11893 14866 14867 28
11894 14866 14868 28
11895 14866 14869 28
11896 14866 14870 28
11897 14871 14872 28
11898 14871 14873 28
11899 14871 14874 28
11900 14871 14875 28
11901 14876 14877 28
11902 14876 14878 28
11903 14876 14879 28
11904 14876 14880 28
11905 14881 14882 28
11906 14881 14883 28
11907 14881 14884 28
11908 14881 14885 28
11909 14886 14887 28
11910 14886 14888 28
11911 14886 14889 28
11912 14886 14890 28
11913 14891 14892 28
11914 14891 14893 28
11915 14891 14894 28
11916 14891 14895 28
11917 14896 14897 28
11918 14896 14898 28
11919 14896 14899 28
11920 14896 14900 28
11921 14901 14902 28
11922 14901 14903 28
11923 14901 14904 28
11924 14901 14905 28
11925 14906 14907 28
11926 14906 14908 28
11927 14906 14909 28
11928 14906 14910 28
11929 14911 14912 28
11930 14911 14913 28
11931 14911 14914 28
11932 14911 14915 28
11933 14916 14917 28
11934 14916 14918 28
11935 14916 14919 28
11936 14916 14920 28
11937 14921 14922 28
11938 14921 14923 28
11939 14921 14924 28
11940 14921 14925 28
11941 14926 14927 28
11942 14926 14928 28
11943 14926 14929 28
11944 14926 14930 28
11945 14931 14932 28
11946 14931 14933 28
11947 14931 14934 28
11948 14931 14935 28
11949 14936 14937 28
11950 14936 14938 28
11951 14936 14939 28
11952 14936 14940 28
11953 14941 14942 28
11954 14941 14943 28
11955 14941 14944 28
11956 14941 14945 28
11957 14946 14947 28
11958 14946 14948 28
11959 14946 14949 28
11960 14946 14950 28
11961 14951 14952 28
11962 14951 14953 28
11963 14951 14954 28
11964 14951 14955 28
11965 14956 14957 28
11966 14956 14958 28
11967 14956 14959 28
11968 14956 14960 28
11969 14961 14962 28
11970 14961 14963 28
11971 14961 14964 28
11972 14961 14965 28
11973 14966 14967 28
11974 14966 14968 28
11975 14966 14969 28
11976 14966 14970 28
11977 14971 14972 28
11978 14971 14973 28
11979 14971 14974 28
11980 14971 14975 28
11981 14976 14977 28
11982 14976 14978 28
11983 14976 14979 28
11984 14976 14980 28
11985 14981 14982 28
11986 14981 14983 28
11987 14981 14984 28
11988 14981 14985 28
11989 14986 14987 28
11990 14986 14988 28
11991 14986 14989 28
11992 14986 14990 28
11993 14991 14992 28
11994 14991 14993 28
11995 14991 14994 28
11996 14991 14995 28
11997 14996 14997 28
11998 14996 14998 28
11999 14996 14999 28
12000 14996 15000 28
12001 15001 15002 28
12002 15001 15003 28
12003 15001 15004 28
12004 15001 15005 28
12005 15006 15007 28
12006 15006 15008 28
12007 15006 15009 28
12008 15006 15010 28
12009 15011 15012 28
12010 15011 15013 28
12011 15011 15014 28
12012 15011 15015 28
12013 15016 15017 28
12014 15016 15018 28
12015 15016 15019 28
12016 15016 15020 28
12017 15021 15022 28
12018 15021 15023 28
12019 15021 15024 28
12020 15021 15025 28
12021 15026 15027 28
12022 15026 15028 28
12023 15026 15029 28
12024 15026 15030 28
12025 15031 15032 28
12026 15031 15033 28
12027 15031 15034 28
12028 15031 15035 28
12029 15036 15037 28
12030 15036 15038 28
12031 15036 15039 28
12032 15036 15040 28
12033 15041 15042 28
12034 15041 15043 28
12035 15041 15044 28
12036 15041 15045 28
12037 15046 15047 28
12038 15046 15048 28
12039 15046 15049 28
12040 15046 15050 28
12041 15051 15052 28
12042 15051 15053 28
12043 15051 15054 28
12044 15051 15055 28
12045 15056 15057 28
12046 15056 15058 28
12047 15056 15059 28
12048 15056 15060 28
12049 15061 15062 28
12050 15061 15063 28
12051 15061 15064 28
12052 15061 15065 28
12053 15066 15067 28
12054 15066 15068 28
12055 15066 15069 28
12056 15066 15070 28
12057 15071 15072 28
12058 15071 15073 28
12059 15071 15074 28
12060 15071 15075 28
12061 15076 15077 28
12062 15076 15078 28
12063 15076 15079 28
12064 15076 15080 28
12065 15081 15082 28
12066 15081 15083 28
12067 15081 15084 28
12068 15081 15085 28
12069 15086 15087 28
12070 15086 15088 28
12071 15086 15089 28
12072 15086 15090 28
12073 15091 15092 28
12074 15091 15093 28
12075 15091 15094 28
12076 15091 15095 28
12077 15096 15097 28
12078 15096 15098 28
12079 15096 15099 28
12080 15096 15100 28
12081 15101 15102 28
12082 15101 15103 28
12083 15101 15104 28
12084 15101 15105 28
12085 15106 15107 28
12086 15106 15108 28
12087 15106 15109 28
12088 15106 15110 28
12089 15111 15112 28
12090 15111 15113 28
12091 15111 15114 28
12092 15111 15115 28
12093 15116 15117 28
12094 15116 15118 28
12095 15116 15119 28
12096 15116 15120 28
12097 15121 15122 28
12098 15121 15123 28
12099 15121 15124 28
12100 15121 15125 28
12101 15126 15127 28
12102 15126 15128 28
12103 15126 15129 28
12104 15126 15130 28
12105 15131 15132 28
12106 15131 15133 28
12107 15131 15134 28
12108 15131 15135 28
12109 15136 15137 28
12110 15136 15138 28
12111 15136 15139 28
12112 15136 15140 28
12113 15141 15142 28
12114 15141 15143 28
12115 15141 15144 28
12116 15141 15145 28
12117 15146 15147 28
12118 15146 15148 28
12119 15146 15149 28
12120 15146 15150 28
12121 15151 15152 28
12122 15151 15153 28
12123 15151 15154 28
12124 15151 15155 28
12125 15156 15157 28
12126 15156 15158 28
12127 15156 15159 28
12128 15156 15160 28
12129 15161 15162 28
12130 15161 15163 28
12131 15161 15164 28
12132 15161 15165 28
12133 15166 15167 28
12134 15166 15168 28
12135 15166 15169 28
12136 15166 15170 28
12137 15171 15172 28
12138 15171 15173 28
12139 15171 15174 28
12140 15171 15175 28
12141 15176 15177 28
12142 15176 15178 28
12143 15176 15179 28
12144 15176 15180 28
12145 15181 15182 28
12146 15181 15183 28
12147 15181 15184 28
12148 15181 15185 28
12149 15186 15187 28
12150 15186 15188 28
12151 15186 15189 28
12152 15186 15190 28
12153 15191 15192 28
12154 15191 15193 28
12155 15191 15194 28
12156 15191 15195 28
12157 15196 15197 28
12158 15196 15198 28
12159 15196 15199 28
12160 15196 15200 28
12161 15201 15202 28
12162 15201 15203 28
12163 15201 15204 28
12164 15201 15205 28
12165 15206 15207 28
12166 15206 15208 28
12167 15206 15209 28
12168 15206 15210 28
12169 15211 15212 28
12170 15211 15213 28
12171 15211 15214 28
12172 15211 15215 28
12173 15216 15217 28
12174 15216 15218 28
12175 15216 15219 28
12176 15216 15220 28
12177 15221 15222 28
12178 15221 15223 28
12179 15221 15224 28
12180 15221 15225 28
12181 15226 15227 28
12182 15226 15228 28
12183 15226 15229 28
12184 15226 15230 28
12185 15231 15232 28
12186 15231 15233 28
12187 15231 15234 28
12188 15231 15235 28
12189 15236 15237 28
12190 15236 15238 28
12191 15236 15239 28
12192 15236 15240 28
12193 15241 15242 28
12194 15241 15243 28
12195 15241 15244 28
12196 15241 15245 28
12197 15246 15247 28
12198 15246 15248 28
12199 15246 15249 28
12200 15246 15250 28
12201 15251 15252 28
12202 15251 15253 28
12203 15251 15254 28
12204 15251 15255 28
12205 15256 15257 28
12206 15256 15258 28
12207 15256 15259 28
12208 15256 15260 28
12209 15261 15262 28
12210 15261 15263 28
12211 15261 15264 28
12212 15261 15265 28
12213 15266 15267 28
12214 15266 15268 28
12215 15266 15269 28
12216 15266 15270 28
12217 15271 15272 28
12218 15271 15273 28
12219 15271 15274 28
12220 15271 15275 28
12221 15276 15277 28
12222 15276 15278 28
12223 15276 15279 28
12224 15276 15280 28
12225 15281 15282 28
12226 15281 15283 28
12227 15281 15284 28
12228 15281 15285 28
12229 15286 15287 28
12230 15286 15288 28
12231 15286 15289 28
12232 15286 15290 28
12233 15291 15292 28
12234 15291 15293 28
12235 15291 15294 28
12236 15291 15295 28
12237 15296 15297 28
12238 15296 15298 28
12239 15296 15299 28
12240 15296 15300 28
12241 15301 15302 28
12242 15301 15303 28
12243 15301 15304 28
12244 15301 15305 28
12245 15306 15307 28
12246 15306 15308 28
12247 15306 15309 28
12248 15306 15310 28
12249 15311 15312 28
12250 15311 15313 28
12251 15311 15314 28
12252 15311 15315 28
12253 15316 15317 28
12254 15316 15318 28
12255 15316 15319 28
12256 15316 15320 28
12257 15321 15322 28
12258 15321 15323 28
12259 15321 15324 28
12260 15321 15325 28
12261 15326 15327 28
12262 15326 15328 28
12263 15326 15329 28
12264 15326 15330 28
12265 15331 15332 28
12266 15331 15333 28
12267 15331 15334 28
12268 15331 15335 28
12269 15336 15337 28
12270 15336 15338 28
12271 15336 15339 28
12272 15336 15340 28
12273 15341 15342 28
12274 15341 15343 28
12275 15341 15344 28
12276 15341 15345 28
12277 15346 15347 28
12278 15346 15348 28
12279 15346 15349 28
12280 15346 15350 28
12281 15351 15352 28
12282 15351 15353 28
12283 15351 15354 28
12284 15351 15355 28
12285 15356 15357 28
12286 15356 15358 28
12287 15356 15359 28
12288 15356 15360 28
12289 15361 15362 28
12290 15361 15363 28
12291 15361 15364 28
12292 15361 15365 28
12293 15366 15367 28
12294 15366 15368 28
12295 15366 15369 28
12296 15366 15370 28
12297 15371 15372 28
12298 15371 15373 28
12299 15371 15374 28
12300 15371 15375 28
12301 15376 15377 28
12302 15376 15378 28
12303 15376 15379 28
12304 15376 15380 28
12305 15381 15382 28
12306 15381 15383 28
12307 15381 15384 28
12308 15381 15385 28
12309 15386 15387 28
12310 15386 15388 28
12311 15386 15389 28
12312 15386 15390 28
12313 15391 15392 28
12314 15391 15393 28
12315 15391 15394 28
12316 15391 15395 28
12317 15396 15397 28
12318 15396 15398 28
12319 15396 15399 28
12320 15396 15400 28
12321 15401 15402 28
12322 15401 15403 28
12323 15401 15404 28
12324 15401 15405 28
12325 15406 15407 28
12326 15406 15408 28
12327 15406 15409 28
12328 15406 15410 28
12329 15411 15412 28
12330 15411 15413 28
12331 15411 15414 28
12332 15411 15415 28
12333 15416 15417 28
12334 15416 15418 28
12335 15416 15419 28
12336 15416 15420 28
12337 15421 15422 28
12338 15421 15423 28
12339 15421 15424 28
12340 15421 15425 28
12341 15426 15427 28
12342 15426 15428 28
12343 15426 15429 28
12344 15426 15430 28
12345 15431 15432 28
12346 15431 15433 28
12347 15431 15434 28
12348 15431 15435 28
12349 15436 15437 28
12350 15436 15438 28
12351 15436 15439 28
12352 15436 15440 28
12353 15441 15442 28
12354 15441 15443 28
12355 15441 15444 28
12356 15441 15445 28
12357 15446 15447 28
12358 15446 15448 28
12359 15446 15449 28
12360 15446 15450 28
12361 15451 15452 28
12362 15451 15453 28
12363 15451 15454 28
12364 15451 15455 28
12365 15456 15457 28
12366 15456 15458 28
12367 15456 15459 28
12368 15456 15460 28
12369 15461 15462 28
12370 15461 15463 28
12371 15461 15464 28
12372 15461 15465 28
12373 15466 15467 28
12374 15466 15468 28
12375 15466 15469 28
12376 15466 15470 28
12377 15471 15472 28
12378 15471 15473 28
12379 15471 15474 28
12380 15471 15475 28
12381 15476 15477 28
12382 15476 15478 28
12383 15476 15479 28
12384 15476 15480 28
12385 15481 15482 28
12386 15481 15483 28
12387 15481 15484 28
12388 15481 15485 28
12389 15486 15487 28
12390 15486 15488 28
12391 15486 15489 28
12392 15486 15490 28
12393 15491 15492 28
12394 15491 15493 28
12395 15491 15494 28
12396 15491 15495 28
12397 15496 15497 28
12398 15496 15498 28
12399 15496 15499 28
12400 15496 15500 28
12401 15501 15502 28
12402 15501 15503 28
12403 15501 15504 28
12404 15501 15505 28
12405 15506 15507 28
12406 15506 15508 28
12407 15506 15509 28
12408 15506 15510 28
12409 15511 15512 28
12410 15511 15513 28
12411 15511 15514 28
12412 15511 15515 28
12413 15516 15517 28
12414 15516 15518 28
12415 15516 15519 28
12416 15516 15520 28
12417 15521 15522 28
12418 15521 15523 28
12419 15521 15524 28
12420 15521 15525 28
12421 15526 15527 28
12422 15526 15528 28
12423 15526 15529 28
12424 15526 15530 28
12425 15531 15532 28
12426 15531 15533 28
12427 15531 15534 28
12428 15531 15535 28
12429 15536 15537 28
12430 15536 15538 28
12431 15536 15539 28
12432 15536 15540 28
12433 15541 15542 28
12434 15541 15543 28
12435 15541 15544 28
12436 15541 15545 28
12437 15546 15547 28
12438 15546 15548 28
12439 15546 15549 28
12440 15546 15550 28
12441 15551 15552 28
12442 15551 15553 28
12443 15551 15554 28
12444 15551 15555 28
12445 15556 15557 28
12446 15556 15558 28
12447 15556 15559 28
12448 15556 15560 28
12449 15561 15562 28
12450 15561 15563 28
12451 15561 15564 28
12452 15561 15565 28
12453 15566 15567 28
12454 15566 15568 28
12455 15566 15569 28
12456 15566 15570 28
12457 15571 15572 28
12458 15571 15573 28
12459 15571 15574 28
12460 15571 15575 28
12461 15576 15577 28
12462 15576 15578 28
12463 15576 15579 28
12464 15576 15580 28
12465 15581 15582 28
12466 15581 15583 28
12467 15581 15584 28
12468 15581 15585 28
12469 15586 15587 28
12470 15586 15588 28
12471 15586 15589 28
12472 15586 15590 28
12473 15591 15592 28
12474 15591 15593 28
12475 15591 15594 28
12476 15591 15595 28
12477 15596 15597 28
12478 15596 15598 28
12479 15596 15599 28
12480 15596 15600 28
12481 15601 15602 28
12482 15601 15603 28
12483 15601 15604 28
12484 15601 15605 28
12485 15606 15607 28
12486 15606 15608 28
12487 15606 15609 28
12488 15606 15610 28
12489 15611 15612 28
12490 15611 15613 28
12491 15611 15614 28
12492 15611 15615 28
12493 15616 15617 28
12494 15616 15618 28
12495 15616 15619 28
12496 15616 15620 28
12497 15621 15622 28
12498 15621 15623 28
12499 15621 15624 28
12500 15621 15625 28
12501 15626 15627 28
12502 15626 15628 28
12503 15626 15629 28
12504 15626 15630 28
12505 15631 15632 28
12506 15631 15633 28
12507 15631 15634 28
12508 15631 15635 28
12509 15636 15637 28
12510 15636 15638 28
12511 15636 15639 28
12512 15636 15640 28
12513 15641 15642 28
12514 15641 15643 28
12515 15641 15644 28
12516 15641 15645 28
12517 15646 15647 28
12518 15646 15648 28
12519 15646 15649 28
12520 15646 15650 28
12521 15651 15652 28
12522 15651 15653 28
12523 15651 15654 28
12524 15651 15655 28
12525 15656 15657 28
12526 15656 15658 28
12527 15656 15659 28
12528 15656 15660 28
12529 15661 15662 28
12530 15661 15663 28
12531 15661 15664 28
12532 15661 15665 28
12533 15666 15667 28
12534 15666 15668 28
12535 15666 15669 28
12536 15666 15670 28
12537 15671 15672 28
12538 15671 15673 28
12539 15671 15674 28
12540 15671 15675 28
12541 15676 15677 28
12542 15676 15678 28
12543 15676 15679 28
12544 15676 15680 28
12545 15681 15682 28
12546 15681 15683 28
12547 15681 15684 28
12548 15681 15685 28
12549 15686 15687 28
12550 15686 15688 28
12551 15686 15689 28
12552 15686 15690 28
12553 15691 15692 28
12554 15691 15693 28
12555 15691 15694 28
12556 15691 15695 28
12557 15696 15697 28
12558 15696 15698 28
12559 15696 15699 28
12560 15696 15700 28
12561 15701 15702 28
12562 15701 15703 28
12563 15701 15704 28
12564 15701 15705 28
12565 15706 15707 28
12566 15706 15708 28
12567 15706 15709 28
12568 15706 15710 28
12569 15711 15712 28
12570 15711 15713 28
12571 15711 15714 28
12572 15711 15715 28
12573 15716 15717 28
12574 15716 15718 28
12575 15716 15719 28
12576 15716 15720 28
12577 15721 15722 28
12578 15721 15723 28
12579 15721 15724 28
12580 15721 15725 28
12581 15726 15727 28
12582 15726 15728 28
12583 15726 15729 28
12584 15726 15730 28
12585 15731 15732 28
12586 15731 15733 28
12587 15731 15734 28
12588 15731 15735 28
12589 15736 15737 28
12590 15736 15738 28
12591 15736 15739 28
12592 15736 15740 28
12593 15741 15742 28
12594 15741 15743 28
12595 15741 15744 28
12596 15741 15745 28
12597 15746 15747 28
12598 15746 15748 28
12599 15746 15749 28
12600 15746 15750 28
12601 15751 15752 28
12602 15751 15753 28
12603 15751 15754 28
12604 15751 15755 28
12605 15756 15757 28
12606 15756 15758 28
12607 15756 15759 28
12608 15756 15760 28
12609 15761 15762 28
12610 15761 15763 28
12611 15761 15764 28
12612 15761 15765 28
12613 15766 15767 28
12614 15766 15768 28
12615 15766 15769 28
12616 15766 15770 28
12617 15771 15772 28
12618 15771 15773 28
12619 15771 15774 28
12620 15771 15775 28
12621 15776 15777 28
12622 15776 15778 28
12623 15776 15779 28
12624 15776 15780 28
12625 15781 15782 28
12626 15781 15783 28
12627 15781 15784 28
12628 15781 15785 28
12629 15786 15787 28
12630 15786 15788 28
12631 15786 15789 28
12632 15786 15790 28
12633 15791 15792 28
12634 15791 15793 28
12635 15791 15794 28
12636 15791 15795 28
12637 15796 15797 28
12638 15796 15798 28
12639 15796 15799 28
12640 15796 15800 28
12641 15801 15802 28
12642 15801 15803 28
12643 15801 15804 28
12644 15801 15805 28
12645 15806 15807 28
12646 15806 15808 28
12647 15806 15809 28
12648 15806 15810 28
12649 15811 15812 28
12650 15811 15813 28
12651 15811 15814 28
12652 15811 15815 28
12653 15816 15817 28
12654 15816 15818 28
12655 15816 15819 28
12656 15816 15820 28
12657 15821 15822 28
12658 15821 15823 28
12659 15821 15824 28
12660 15821 15825 28
12661 15826 15827 28
12662 15826 15828 28
12663 15826 15829 28
12664 15826 15830 28
12665 15831 15832 28
12666 15831 15833 28
12667 15831 15834 28
12668 15831 15835 28
12669 15836 15837 28
12670 15836 15838 28
12671 15836 15839 28
12672 15836 15840 28
12673 15841 15842 28
12674 15841 15843 28
12675 15841 15844 28
12676 15841 15845 28
12677 15846 15847 28
12678 15846 15848 28
12679 15846 15849 28
12680 15846 15850 28
12681 15851 15852 28
12682 15851 15853 28
12683 15851 15854 28
12684 15851 15855 28
12685 15856 15857 28
12686 15856 15858 28
12687 15856 15859 28
12688 15856 15860 28
12689 15861 15862 28
12690 15861 15863 28
12691 15861 15864 28
12692 15861 15865 28
12693 15866 15867 28
12694 15866 15868 28
12695 15866 15869 28
12696 15866 15870 28
12697 15871 15872 28
12698 15871 15873 28
12699 15871 15874 28
12700 15871 15875 28
12701 15876 15877 28
12702 15876 15878 28
12703 15876 15879 28
12704 15876 15880 28
12705 15881 15882 28
12706 15881 15883 28
12707 15881 15884 28
12708 15881 15885 28
12709 15886 15887 28
12710 15886 15888 28
12711 15886 15889 28
12712 15886 15890 28
12713 15891 15892 28
12714 15891 15893 28
12715 15891 15894 28
12716 15891 15895 28
12717 15896 15897 28
12718 15896 15898 28
12719 15896 15899 28
12720 15896 15900 28
12721 15901 15902 28
12722 15901 15903 28
12723 15901 15904 28
12724 15901 15905 28
12725 15906 15907 28
12726 15906 15908 28
12727 15906 15909 28
12728 15906 15910 28
12729 15911 15912 28
12730 15911 15913 28
12731 15911 15914 28
12732 15911 15915 28
12733 15916 15917 28
12734 15916 15918 28
12735 15916 15919 28
12736 15916 15920 28
12737 15921 15922 28
12738 15921 15923 28
12739 15921 15924 28
12740 15921 15925 28
12741 15926 15927 28
12742 15926 15928 28
12743 15926 15929 28
12744 15926 15930 28
12745 15931 15932 28
12746 15931 15933 28
12747 15931 15934 28
12748 15931 15935 28
12749 15936 15937 28
12750 15936 15938 28
12751 15936 15939 28
12752 15936 15940 28
12753 15941 15942 28
12754 15941 15943 28
12755 15941 15944 28
12756 15941 15945 28
12757 15946 15947 28
12758 15946 15948 28
12759 15946 15949 28
12760 15946 15950 28
12761 15951 15952 28
12762 15951 15953 28
12763 15951 15954 28
12764 15951 15955 28
12765 15956 15957 28
12766 15956 15958 28
12767 15956 15959 28
12768 15956 15960 28
12769 15961 15962 28
12770 15961 15963 28
12771 15961 15964 28
12772 15961 15965 28
12773 15966 15967 28
12774 15966 15968 28
12775 15966 15969 28
12776 15966 15970 28
12777 15971 15972 28
12778 15971 15973 28
12779 15971 15974 28
12780 15971 15975 28
12781 15976 15977 28
12782 15976 15978 28
12783 15976 15979 28
12784 15976 15980 28
12785 15981 15982 28
12786 15981 15983 28
12787 15981 15984 28
12788 15981 15985 28
12789 15986 15987 28
12790 15986 15988 28
12791 15986 15989 28
12792 15986 15990 28
12793 15991 15992 28
12794 15991 15993 28
12795 15991 15994 28
12796 15991 15995 28
12797 15996 15997 28
12798 15996 15998 28
12799 15996 15999 28
12800 15996 16000 28
12801 16001 16002 28
12802 16001 16003 28
12803 16001 16004 28
12804 16001 16005 28
12805 16006 16007 28
12806 16006 16008 28
12807 16006 16009 28
12808 16006 16010 28
12809 16011 16012 28
12810 16011 16013 28
12811 16011 16014 28
12812 16011 16015 28
12813 16016 16017 28
12814 16016 16018 28
12815 16016 16019 28
12816 16016 16020 28
12817 16021 16022 28
12818 16021 16023 28
12819 16021 16024 28
12820 16021 16025 28
12821 16026 16027 28
12822 16026 16028 28
12823 16026 16029 28
12824 16026 16030 28
12825 16031 16032 28
12826 16031 16033 28
12827 16031 16034 28
12828 16031 16035 28
12829 16036 16037 28
12830 16036 16038 28
12831 16036 16039 28
12832 16036 16040 28
12833 16041 16042 28
12834 16041 16043 28
12835 16041 16044 28
12836 16041 16045 28
12837 16046 16047 28
12838 16046 16048 28
12839 16046 16049 28
12840 16046 16050 28
12841 16051 16052 28
12842 16051 16053 28
12843 16051 16054 28
12844 16051 16055 28
12845 16056 16057 28
12846 16056 16058 28
12847 16056 16059 28
12848 16056 16060 28
12849 16061 16062 28
12850 16061 16063 28
12851 16061 16064 28
12852 16061 16065 28
12853 16066 16067 28
12854 16066 16068 28
12855 16066 16069 28
12856 16066 16070 28
12857 16071 16072 28
12858 16071 16073 28
12859 16071 16074 28
12860 16071 16075 28
12861 16076 16077 28
12862 16076 16078 28
12863 16076 16079 28
12864 16076 16080 28
12865 16081 16082 28
12866 16081 16083 28
12867 16081 16084 28
12868 16081 16085 28
12869 16086 16087 28
12870 16086 16088 28
12871 16086 16089 28
12872 16086 16090 28
12873 16091 16092 28
12874 16091 16093 28
12875 16091 16094 28
12876 16091 16095 28
12877 16096 16097 28
12878 16096 16098 28
12879 16096 16099 28
12880 16096 16100 28
12881 16101 16102 28
12882 16101 16103 28
12883 16101 16104 28
12884 16101 16105 28
12885 16106 16107 28
12886 16106 16108 28
12887 16106 16109 28
12888 16106 16110 28
12889 16111 16112 28
12890 16111 16113 28
12891 16111 16114 28
12892 16111 16115 28
12893 16116 16117 28
12894 16116 16118 28
12895 16116 16119 28
12896 16116 16120 28
12897 16121 16122 28
12898 16121 16123 28
12899 16121 16124 28
12900 16121 16125 28
12901 16126 16127 28
12902 16126 16128 28
12903 16126 16129 28
12904 16126 16130 28
12905 16131 16132 28
12906 16131 16133 28
12907 16131 16134 28
12908 16131 16135 28
12909 16136 16137 28
12910 16136 16138 28
12911 16136 16139 28
12912 16136 16140 28
12913 16141 16142 28
12914 16141 16143 28
12915 16141 16144 28
12916 16141 16145 28
12917 16146 16147 28
12918 16146 16148 28
12919 16146 16149 28
12920 16146 16150 28
12921 16151 16152 28
12922 16151 16153 28
12923 16151 16154 28
12924 16151 16155 28
12925 16156 16157 28
12926 16156 16158 28
12927 16156 16159 28
12928 16156 16160 28
12929 16161 16162 28
12930 16161 16163 28
12931 16161 16164 28
12932 16161 16165 28
12933 16166 16167 28
12934 16166 16168 28
12935 16166 16169 28
12936 16166 16170 28
12937 16171 16172 28
12938 16171 16173 28
12939 16171 16174 28
12940 16171 16175 28
12941 16176 16177 28
12942 16176 16178 28
12943 16176 16179 28
12944 16176 16180 28
12945 16181 16182 28
12946 16181 16183 28
12947 16181 16184 28
12948 16181 16185 28
12949 16186 16187 28
12950 16186 16188 28
12951 16186 16189 28
12952 16186 16190 28
12953 16191 16192 28
12954 16191 16193 28
12955 16191 16194 28
12956 16191 16195 28
12957 16196 16197 28
12958 16196 16198 28
12959 16196 16199 28
12960 16196 16200 28
12961 16201 16202 28
12962 16201 16203 28
12963 16201 16204 28
12964 16201 16205 28
12965 16206 16207 28
12966 16206 16208 28
12967 16206 16209 28
12968 16206 16210 28
12969 16211 16212 28
12970 16211 16213 28
12971 16211 16214 28
12972 16211 16215 28
12973 16216 16217 28
12974 16216 16218 28
12975 16216 16219 28
12976 16216 16220 28
12977 16221 16222 28
12978 16221 16223 28
12979 16221 16224 28
12980 16221 16225 28
12981 16226 16227 28
12982 16226 16228 28
12983 16226 16229 28
12984 16226 16230 28
12985 16231 16232 28
12986 16231 16233 28
12987 16231 16234 28
12988 16231 16235 28
12989 16236 16237 28
12990 16236 16238 28
12991 16236 16239 28
12992 16236 16240 28
12993 16241 16242 28
12994 16241 16243 28
12995 16241 16244 28
12996 16241 16245 28
12997 16246 16247 28
12998 16246 16248 28
12999 16246 16249 28
13000 16246 16250 28
13001 16251 16252 28
13002 16251 16253 28
13003 16251 16254 28
13004 16251 16255 28
13005 16256 16257 28
13006 16256 16258 28
13007 16256 16259 28
13008 16256 16260 28
13009 16261 16262 28
13010 16261 16263 28
13011 16261 16264 28
13012 16261 16265 28
13013 16266 16267 28
13014 16266 16268 28
13015 16266 16269 28
13016 16266 16270 28
13017 16271 16272 28
13018 16271 16273 28
13019 16271 16274 28
13020 16271 16275 28
13021 16276 16277 28
13022 16276 16278 28
13023 16276 16279 28
13024 16276 16280 28
13025 16281 16282 28
13026 16281 16283 28
13027 16281 16284 28
13028 16281 16285 28
13029 16286 16287 28
13030 16286 16288 28
13031 16286 16289 28
13032 16286 16290 28
13033 16291 16292 28
13034 16291 16293 28
13035 16291 16294 28
13036 16291 16295 28
13037 16296 16297 28
13038 16296 16298 28
13039 16296 16299 28
13040 16296 16300 28
13041 16301 16302 28
13042 16301 16303 28
13043 16301 16304 28
13044 16301 16305 28
13045 16306 16307 28
13046 16306 16308 28
13047 16306 16309 28
13048 16306 16310 28
13049 16311 16312 28
13050 16311 16313 28
13051 16311 16314 28
13052 16311 16315 28
13053 16316 16317 28
13054 16316 16318 28
13055 16316 16319 28
13056 16316 16320 28
13057 16321 16322 28
13058 16321 16323 28
13059 16321 16324 28
13060 16321 16325 28
13061 16326 16327 28
13062 16326 16328 28
13063 16326 16329 28
13064 16326 16330 28
13065 16331 16332 28
13066 16331 16333 28
13067 16331 16334 28
13068 16331 16335 28
13069 16336 16337 28
13070 16336 16338 28
13071 16336 16339 28
13072 16336 16340 28
13073 16341 16342 28
13074 16341 16343 28
13075 16341 16344 28
13076 16341 16345 28
13077 16346 16347 28
13078 16346 16348 28
13079 16346 16349 28
13080 16346 16350 28
13081 16351 16352 28
13082 16351 16353 28
13083 16351 16354 28
13084 16351 16355 28
13085 16356 16357 28
13086 16356 16358 28
13087 16356 16359 28
13088 16356 16360 28
13089 16361 16362 28
13090 16361 16363 28
13091 16361 16364 28
13092 16361 16365 28
13093 16366 16367 28
13094 16366 16368 28
13095 16366 16369 28
13096 16366 16370 28
13097 16371 16372 28
13098 16371 16373 28
13099 16371 16374 28
13100 16371 16375 28
13101 16376 16377 28
13102 16376 16378 28
13103 16376 16379 28
13104 16376 16380 28
13105 16381 16382 28
13106 16381 16383 28
13107 16381 16384 28
13108 16381 16385 28
13109 16386 16387 28
13110 16386 16388 28
13111 16386 16389 28
13112 16386 16390 28
13113 16391 16392 28
13114 16391 16393 28
13115 16391 16394 28
13116 16391 16395 28
13117 16396 16397 28
13118 16396 16398 28
13119 16396 16399 28
13120 16396 16400 28
13121 16401 16402 28
13122 16401 16403 28
13123 16401 16404 28
13124 16401 16405 28
13125 16406 16407 28
13126 16406 16408 28
13127 16406 16409 28
13128 16406 16410 28
13129 16411 16412 28
13130 16411 16413 28
13131 16411 16414 28
13132 16411 16415 28
13133 16416 16417 28
13134 16416 16418 28
13135 16416 16419 28
13136 16416 16420 28
13137 16421 16422 28
13138 16421 16423 28
13139 16421 16424 28
13140 16421 16425 28
13141 16426 16427 28
13142 16426 16428 28
13143 16426 16429 28
13144 16426 16430 28
13145 16431 16432 28
13146 16431 16433 28
13147 16431 16434 28
13148 16431 16435 28
13149 16436 16437 28
13150 16436 16438 28
13151 16436 16439 28
13152 16436 16440 28
13153 16441 16442 28
13154 16441 16443 28
13155 16441 16444 28
13156 16441 16445 28
13157 16446 16447 28
13158 16446 16448 28
13159 16446 16449 28
13160 16446 16450 28
13161 16451 16452 28
13162 16451 16453 28
13163 16451 16454 28
13164 16451 16455 28
13165 16456 16457 28
13166 16456 16458 28
13167 16456 16459 28
13168 16456 16460 28
13169 16461 16462 28
13170 16461 16463 28
13171 16461 16464 28
13172 16461 16465 28
13173 16466 16467 28
13174 16466 16468 28
13175 16466 16469 28
13176 16466 16470 28
13177 16471 16472 28
13178 16471 16473 28
13179 16471 16474 28
13180 16471 16475 28
13181 16476 16477 28
13182 16476 16478 28
13183 16476 16479 28
13184 16476 16480 28
13185 16481 16482 28
13186 16481 16483 28
13187 16481 16484 28
13188 16481 16485 28
13189 16486 16487 28
13190 16486 16488 28
13191 16486 16489 28
13192 16486 16490 28
13193 16491 16492 28
13194 16491 16493 28
13195 16491 16494 28
13196 16491 16495 28
13197 16496 16497 28
13198 16496 16498 28
13199 16496 16499 28
13200 16496 16500 28
13201 16501 16502 28
13202 16501 16503 28
13203 16501 16504 28
13204 16501 16505 28
13205 16506 16507 28
13206 16506 16508 28
13207 16506 16509 28
13208 16506 16510 28
13209 16511 16512 28
13210 16511 16513 28
13211 16511 16514 28
13212 16511 16515 28
13213 16516 16517 28
13214 16516 16518 28
13215 16516 16519 28
13216 16516 16520 28
13217 16521 16522 28
13218 16521 16523 28
13219 16521 16524 28
13220 16521 16525 28
13221 16526 16527 28
13222 16526 16528 28
13223 16526 16529 28
13224 16526 16530 28
13225 16531 16532 28
13226 16531 16533 28
13227 16531 16534 28
13228 16531 16535 28
13229 16536 16537 28
13230 16536 16538 28
13231 16536 16539 28
13232 16536 16540 28
13233 16541 16542 28
13234 16541 16543 28
13235 16541 16544 28
13236 16541 16545 28
13237 16546 16547 28
13238 16546 16548 28
13239 16546 16549 28
13240 16546 16550 28
13241 16551 16552 28
13242 16551 16553 28
13243 16551 16554 28
13244 16551 16555 28
13245 16556 16557 28
13246 16556 16558 28
13247 16556 16559 28
13248 16556 16560 28
13249 16561 16562 28
13250 16561 16563 28
13251 16561 16564 28
13252 16561 16565 28
13253 16566 16567 28
13254 16566 16568 28
13255 16566 16569 28
13256 16566 16570 28
13257 16571 16572 28
13258 16571 16573 28
13259 16571 16574 28
13260 16571 16575 28
13261 16576 16577 28
13262 16576 16578 28
13263 16576 16579 28
13264 16576 16580 28
13265 16581 16582 28
13266 16581 16583 28
13267 16581 16584 28
13268 16581 16585 28
13269 16586 16587 28
13270 16586 16588 28
13271 16586 16589 28
13272 16586 16590 28
13273 16591 16592 28
13274 16591 16593 28
13275 16591 16594 28
13276 16591 16595 28
13277 16596 16597 28
13278 16596 16598 28
13279 16596 16599 28
13280 16596 16600 28
13281 16601 16602 28
13282 16601 16603 28
13283 16601 16604 28
13284 16601 16605 28
13285 16606 16607 28
13286 16606 16608 28
13287 16606 16609 28
13288 16606 16610 28
13289 16611 16612 28
13290 16611 16613 28
13291 16611 16614 28
13292 16611 16615 28
13293 16616 16617 28
13294 16616 16618 28
13295 16616 16619 28
13296 16616 16620 28
13297 16621 16622 28
13298 16621 16623 28
13299 16621 16624 28
13300 16621 16625 28
13301 16626 16627 28
13302 16626 16628 28
13303 16626 16629 28
13304 16626 16630 28
13305 16631 16632 28
13306 16631 16633 28
13307 16631 16634 28
13308 16631 16635 28
13309 16636 16637 28
13310 16636 16638 28
13311 16636 16639 28
13312 16636 16640 28
13313 16641 16642 28
13314 16641 16643 28
13315 16641 16644 28
13316 16641 16645 28
13317 16646 16647 28
13318 16646 16648 28
13319 16646 16649 28
13320 16646 16650 28
13321 16651 16652 28
13322 16651 16653 28
13323 16651 16654 28
13324 16651 16655 28
13325 16656 16657 28
13326 16656 16658 28
13327 16656 16659 28
13328 16656 16660 28
13329 16661 16662 28
13330 16661 16663 28
13331 16661 16664 28
13332 16661 16665 28
13333 16666 16667 28
13334 16666 16668 28
13335 16666 16669 28
13336 16666 16670 28
13337 16671 16672 28
13338 16671 16673 28
13339 16671 16674 28
13340 16671 16675 28
13341 16676 16677 28
13342 16676 16678 28
13343 16676 16679 28
13344 16676 16680 28
13345 16681 16682 28
13346 16681 16683 28
13347 16681 16684 28
13348 16681 16685 28
13349 16686 16687 28
13350 16686 16688 28
13351 16686 16689 28
13352 16686 16690 28
13353 16691 16692 28
13354 16691 16693 28
13355 16691 16694 28
13356 16691 16695 28
13357 16696 16697 28
13358 16696 16698 28
13359 16696 16699 28
13360 16696 16700 28
13361 16701 16702 28
13362 16701 16703 28
13363 16701 16704 28
13364 16701 16705 28
13365 16706 16707 28
13366 16706 16708 28
13367 16706 16709 28
13368 16706 16710 28
13369 16711 16712 28
13370 16711 16713 28
13371 16711 16714 28
13372 16711 16715 28
13373 16716 16717 28
13374 16716 16718 28
13375 16716 16719 28
13376 16716 16720 28
13377 16721 16722 28
13378 16721 16723 28
13379 16721 16724 28
13380 16721 16725 28
13381 16726 16727 28
13382 16726 16728 28
13383 16726 16729 28
13384 16726 16730 28
13385 16731 16732 28
13386 16731 16733 28
13387 16731 16734 28
13388 16731 16735 28
13389 16736 16737 28
13390 16736 16738 28
13391 16736 16739 28
13392 16736 16740 28
13393 16741 16742 28
13394 16741 16743 28
13395 16741 16744 28
13396 16741 16745 28
13397 16746 16747 28
13398 16746 16748 28
13399 16746 16749 28
13400 16746 16750 28
13401 16751 16752 28
13402 16751 16753 28
13403 16751 16754 28
13404 16751 16755 28
13405 16756 16757 28
13406 16756 16758 28
13407 16756 16759 28
13408 16756 16760 28
13409 16761 16762 28
13410 16761 16763 28
13411 16761 16764 28
13412 16761 16765 28
13413 16766 16767 28
13414 16766 16768 28
13415 16766 16769 28
13416 16766 16770 28
13417 16771 16772 28
13418 16771 16773 28
13419 16771 16774 28
13420 16771 16775 28
13421 16776 16777 28
13422 16776 16778 28
13423 16776 16779 28
13424 16776 16780 28
13425 16781 16782 28
13426 16781 16783 28
13427 16781 16784 28
13428 16781 16785 28
13429 16786 16787 28
13430 16786 16788 28
13431 16786 16789 28
13432 16786 16790 28
13433 16791 16792 28
13434 16791 16793 28
13435 16791 16794 28
13436 16791 16795 28
13437 16796 16797 28
13438 16796 16798 28
13439 16796 16799 28
13440 16796 16800 28
13441 16801 16802 28
13442 16801 16803 28
13443 16801 16804 28
13444 16801 16805 28
13445 16806 16807 28
13446 16806 16808 28
13447 16806 16809 28
13448 16806 16810 28
13449 16811 16812 28
13450 16811 16813 28
13451 16811 16814 28
13452 16811 16815 28
13453 16816 16817 28
13454 16816 16818 28
13455 16816 16819 28
13456 16816 16820 28
13457 16821 16822 28
13458 16821 16823 28
13459 16821 16824 28
13460 16821 16825 28
13461 16826 16827 28
13462 16826 16828 28
13463 16826 16829 28
13464 16826 16830 28
13465 16831 16832 28
13466 16831 16833 28
13467 16831 16834 28
13468 16831 16835 28
13469 16836 16837 28
13470 16836 16838 28
13471 16836 16839 28
13472 16836 16840 28
13473 16841 16842 28
13474 16841 16843 28
13475 16841 16844 28
13476 16841 16845 28
13477 16846 16847 28
13478 16846 16848 28
13479 16846 16849 28
13480 16846 16850 28
13481 16851 16852 28
13482 16851 16853 28
13483 16851 16854 28
13484 16851 16855 28
13485 16856 16857 28
13486 16856 16858 28
13487 16856 16859 28
13488 16856 16860 28
13489 16861 16862 28
13490 16861 16863 28
13491 16861 16864 28
13492 16861 16865 28
13493 16866 16867 28
13494 16866 16868 28
13495 16866 16869 28
13496 16866 16870 28
13497 16871 16872 28
13498 16871 16873 28
13499 16871 16874 28
13500 16871 16875 28
13501 16876 16877 28
13502 16876 16878 28
13503 16876 16879 28
13504 16876 16880 28
13505 16881 16882 28
13506 16881 16883 28
13507 16881 16884 28
13508 16881 16885 28
13509 16886 16887 28
13510 16886 16888 28
13511 16886 16889 28
13512 16886 16890 28
13513 16891 16892 28
13514 16891 16893 28
13515 16891 16894 28
13516 16891 16895 28
13517 16896 16897 28
13518 16896 16898 28
13519 16896 16899 28
13520 16896 16900 28
13521 16901 16902 28
13522 16901 16903 28
13523 16901 16904 28
13524 16901 16905 28
13525 16906 16907 28
13526 16906 16908 28
13527 16906 16909 28
13528 16906 16910 28
13529 16911 16912 28
13530 16911 16913 28
13531 16911 16914 28
13532 16911 16915 28
13533 16916 16917 28
13534 16916 16918 28
13535 16916 16919 28
13536 16916 16920 28
13537 16921 16922 28
13538 16921 16923 28
13539 16921 16924 28
13540 16921 16925 28
13541 16926 16927 28
13542 16926 16928 28
13543 16926 16929 28
13544 16926 16930 28
13545 16931 16932 28
13546 16931 16933 28
13547 16931 16934 28
13548 16931 16935 28
13549 16936 16937 28
13550 16936 16938 28
13551 16936 16939 28
13552 16936 16940 28
13553 16941 16942 28
13554 16941 16943 28
13555 16941 16944 28
13556 16941 16945 28
13557 16946 16947 28
13558 16946 16948 28
13559 16946 16949 28
13560 16946 16950 28
13561 16951 16952 28
13562 16951 16953 28
13563 16951 16954 28
13564 16951 16955 28
13565 16956 16957 28
13566 16956 16958 28
13567 16956 16959 28
13568 16956 16960 28
13569 16961 16962 28
13570 16961 16963 28
13571 16961 16964 28
13572 16961 16965 28
13573 16966 16967 28
13574 16966 16968 28
13575 16966 16969 28
13576 16966 16970 28
13577 16971 16972 28
13578 16971 16973 28
13579 16971 16974 28
13580 16971 16975 28
13581 16976 16977 28
13582 16976 16978 28
13583 16976 16979 28
13584 16976 16980 28
13585 16981 16982 28
13586 16981 16983 28
13587 16981 16984 28
13588 16981 16985 28
13589 16986 16987 28
13590 16986 16988 28
13591 16986 16989 28
13592 16986 16990 28
13593 16991 16992 28
13594 16991 16993 28
13595 16991 16994 28
13596 16991 16995 28
13597 16996 16997 28
13598 16996 16998 28
13599 16996 16999 28
13600 16996 17000 28
13601 17001 17002 28
13602 17001 17003 28
13603 17001 17004 28
13604 17001 17005 28
13605 17006 17007 28
13606 17006 17008 28
13607 17006 17009 28
13608 17006 17010 28
13609 17011 17012 28
13610 17011 17013 28
13611 17011 17014 28
13612 17011 17015 28
13613 17016 17017 28
13614 17016 17018 28
13615 17016 17019 28
13616 17016 17020 28
13617 17021 17022 28
13618 17021 17023 28
13619 17021 17024 28
13620 17021 17025 28
13621 17026 17027 28
13622 17026 17028 28
13623 17026 17029 28
13624 17026 17030 28
13625 17031 17032 28
13626 17031 17033 28
13627 17031 17034 28
13628 17031 17035 28
13629 17036 17037 28
13630 17036 17038 28
13631 17036 17039 28
13632 17036 17040 28
13633 17041 17042 28
13634 17041 17043 28
13635 17041 17044 28
13636 17041 17045 28
13637 17046 17047 28
13638 17046 17048 28
13639 17046 17049 28
13640 17046 17050 28
13641 17051 17052 28
13642 17051 17053 28
13643 17051 17054 28
13644 17051 17055 28
13645 17056 17057 28
13646 17056 17058 28
13647 17056 17059 28
13648 17056 17060 28
13649 17061 17062 28
13650 17061 17063 28
13651 17061 17064 28
13652 17061 17065 28
13653 17066 17067 28
13654 17066 17068 28
13655 17066 17069 28
13656 17066 17070 28
13657 17071 17072 28
13658 17071 17073 28
13659 17071 17074 28
13660 17071 17075 28
13661 17076 17077 28
13662 17076 17078 28
13663 17076 17079 28
13664 17076 17080 28
13665 17081 17082 28
13666 17081 17083 28
13667 17081 17084 28
13668 17081 17085 28
13669 17086 17087 28
13670 17086 17088 28
13671 17086 17089 28
13672 17086 17090 28
13673 17091 17092 28
13674 17091 17093 28
13675 17091 17094 28
13676 17091 17095 28
13677 17096 17097 28
13678 17096 17098 28
13679 17096 17099 28
13680 17096 17100 28
13681 17101 17102 28
13682 17101 17103 28
13683 17101 17104 28
13684 17101 17105 28
13685 17106 17107 28
13686 17106 17108 28
13687 17106 17109 28
13688 17106 17110 28
13689 17111 17112 28
13690 17111 17113 28
13691 17111 17114 28
13692 17111 17115 28
13693 17116 17117 28
13694 17116 17118 28
13695 17116 17119 28
13696 17116 17120 28
13697 17121 17122 28
13698 17121 17123 28
13699 17121 17124 28
13700 17121 17125 28
13701 17126 17127 28
13702 17126 17128 28
13703 17126 17129 28
13704 17126 17130 28
13705 17131 17132 28
13706 17131 17133 28
13707 17131 17134 28
13708 17131 17135 28
13709 17136 17137 28
13710 17136 17138 28
13711 17136 17139 28
13712 17136 17140 28
13713 17141 17142 28
13714 17141 17143 28
13715 17141 17144 28
13716 17141 17145 28
13717 17146 17147 28
13718 17146 17148 28
13719 17146 17149 28
13720 17146 17150 28
13721 17151 17152 28
13722 17151 17153 28
13723 17151 17154 28
13724 17151 17155 28
13725 17156 17157 28
13726 17156 17158 28
13727 17156 17159 28
13728 17156 17160 28
13729 17161 17162 28
13730 17161 17163 28
13731 17161 17164 28
13732 17161 17165 28
13733 17166 17167 28
13734 17166 17168 28
13735 17166 17169 28
13736 17166 17170 28
13737 17171 17172 28
13738 17171 17173 28
13739 17171 17174 28
13740 17171 17175 28
13741 17176 17177 28
13742 17176 17178 28
13743 17176 17179 28
13744 17176 17180 28
13745 17181 17182 28
13746 17181 17183 28
13747 17181 17184 28
13748 17181 17185 28
13749 17186 17187 28
13750 17186 17188 28
13751 17186 17189 28
13752 17186 17190 28
13753 17191 17192 28
13754 17191 17193 28
13755 17191 17194 28
13756 17191 17195 28
13757 17196 17197 28
13758 17196 17198 28
13759 17196 17199 28
13760 17196 17200 28
13761 17201 17202 28
13762 17201 17203 28
13763 17201 17204 28
13764 17201 17205 28
13765 17206 17207 28
13766 17206 17208 28
13767 17206 17209 28
13768 17206 17210 28
13769 17211 17212 28
13770 17211 17213 28
13771 17211 17214 28
13772 17211 17215 28
13773 17216 17217 28
13774 17216 17218 28
13775 17216 17219 28
13776 17216 17220 28
13777 17221 17222 28
13778 17221 17223 28
13779 17221 17224 28
13780 17221 17225 28
13781 17226 17227 28
13782 17226 17228 28
13783 17226 17229 28
13784 17226 17230 28
13785 17231 17232 28
13786 17231 17233 28
13787 17231 17234 28
13788 17231 17235 28
13789 17236 17237 28
13790 17236 17238 28
13791 17236 17239 28
13792 17236 17240 28
13793 17241 17242 28
13794 17241 17243 28
13795 17241 17244 28
13796 17241 17245 28
13797 17246 17247 28
13798 17246 17248 28
13799 17246 17249 28
13800 17246 17250 28
13801 17251 17252 28
13802 17251 17253 28
13803 17251 17254 28
13804 17251 17255 28
13805 17256 17257 28
13806 17256 17258 28
13807 17256 17259 28
13808 17256 17260 28
13809 17261 17262 28
13810 17261 17263 28
13811 17261 17264 28
13812 17261 17265 28
13813 17266 17267 28
13814 17266 17268 28
13815 17266 17269 28
13816 17266 17270 28
13817 17271 17272 28
13818 17271 17273 28
13819 17271 17274 28
13820 17271 17275 28
13821 17276 17277 28
13822 17276 17278 28
13823 17276 17279 28
13824 17276 17280 28
13825 17281 17282 28
13826 17281 17283 28
13827 17281 17284 28
13828 17281 17285 28
13829 17286 17287 28
13830 17286 17288 28
13831 17286 17289 28
13832 17286 17290 28
13833 17291 17292 28
13834 17291 17293 28
13835 17291 17294 28
13836 17291 17295 28
13837 17296 17297 28
13838 17296 17298 28
13839 17296 17299 28
13840 17296 17300 28
13841 17301 17302 28
13842 17301 17303 28
13843 17301 17304 28
13844 17301 17305 28
13845 17306 17307 28
13846 17306 17308 28
13847 17306 17309 28
13848 17306 17310 28
13849 17311 17312 28
13850 17311 17313 28
13851 17311 17314 28
13852 17311 17315 28
13853 17316 17317 28
13854 17316 17318 28
13855 17316 17319 28
13856 17316 17320 28
13857 17321 17322 28
13858 17321 17323 28
13859 17321 17324 28
13860 17321 17325 28
13861 17326 17327 28
13862 17326 17328 28
13863 17326 17329 28
13864 17326 17330 28
13865 17331 17332 28
13866 17331 17333 28
13867 17331 17334 28
13868 17331 17335 28
13869 17336 17337 28
13870 17336 17338 28
13871 17336 17339 28
13872 17336 17340 28
13873 17341 17342 28
13874 17341 17343 28
13875 17341 17344 28
13876 17341 17345 28
13877 17346 17347 28
13878 17346 17348 28
13879 17346 17349 28
13880 17346 17350 28
13881 17351 17352 28
13882 17351 17353 28
13883 17351 17354 28
13884 17351 17355 28
13885 17356 17357 28
13886 17356 17358 28
13887 17356 17359 28
13888 17356 17360 28
13889 17361 17362 28
13890 17361 17363 28
13891 17361 17364 28
13892 17361 17365 28
13893 17366 17367 28
13894 17366 17368 28
13895 17366 17369 28
13896 17366 17370 28
13897 17371 17372 28
13898 17371 17373 28
13899 17371 17374 28
13900 17371 17375 28
13901 17376 17377 28
13902 17376 17378 28
13903 17376 17379 28
13904 17376 17380 28
13905 17381 17382 28
13906 17381 17383 28
13907 17381 17384 28
13908 17381 17385 28
13909 17386 17387 28
13910 17386 17388 28
13911 17386 17389 28
13912 17386 17390 28
13913 17391 17392 28
13914 17391 17393 28
13915 17391 17394 28
13916 17391 17395 28
13917 17396 17397 28
13918 17396 17398 28
13919 17396 17399 28
13920 17396 17400 28
13921 17401 17402 28
13922 17401 17403 28
13923 17401 17404 28
13924 17401 17405 28
13925 17406 17407 28
13926 17406 17408 28
13927 17406 17409 28
13928 17406 17410 28
13929 17411 17412 28
13930 17411 17413 28
13931 17411 17414 28
13932 17411 17415 28
13933 17416 17417 28
13934 17416 17418 28
13935 17416 17419 28
13936 17416 17420 28
13937 17421 17422 28
13938 17421 17423 28
13939 17421 17424 28
13940 17421 17425 28
13941 17426 17427 28
13942 17426 17428 28
13943 17426 17429 28
13944 17426 17430 28
13945 17431 17432 28
13946 17431 17433 28
13947 17431 17434 28
13948 17431 17435 28
13949 17436 17437 28
13950 17436 17438 28
13951 17436 17439 28
13952 17436 17440 28
13953 17441 17442 28
13954 17441 17443 28
13955 17441 17444 28
13956 17441 17445 28
13957 17446 17447 28
13958 17446 17448 28
13959 17446 17449 28
13960 17446 17450 28
13961 17451 17452 28
13962 17451 17453 28
13963 17451 17454 28
13964 17451 17455 28
13965 17456 17457 28
13966 17456 17458 28
13967 17456 17459 28
13968 17456 17460 28
13969 17461 17462 28
13970 17461 17463 28
13971 17461 17464 28
13972 17461 17465 28
13973 17466 17467 28
13974 17466 17468 28
13975 17466 17469 28
13976 17466 17470 28
13977 17471 17472 28
13978 17471 17473 28
13979 17471 17474 28
13980 17471 17475 28
13981 17476 17477 28
13982 17476 17478 28
13983 17476 17479 28
13984 17476 17480 28
13985 17481 17482 28
13986 17481 17483 28
13987 17481 17484 28
13988 17481 17485 28
13989 17486 17487 28
13990 17486 17488 28
13991 17486 17489 28
13992 17486 17490 28
13993 17491 17492 28
13994 17491 17493 28
13995 17491 17494 28
13996 17491 17495 28
13997 17496 17497 28
13998 17496 17498 28
13999 17496 17499 28
14000 17496 17500 28
14001 17501 17502 28
14002 17501 17503 28
14003 17501 17504 28
14004 17501 17505 28
14005 17506 17507 28
14006 17506 17508 28
14007 17506 17509 28
14008 17506 17510 28
14009 17511 17512 28
14010 17511 17513 28
14011 17511 17514 28
14012 17511 17515 28
14013 17516 17517 28
14014 17516 17518 28
14015 17516 17519 28
14016 17516 17520 28
14017 17521 17522 28
14018 17521 17523 28
14019 17521 17524 28
14020 17521 17525 28
14021 17526 17527 28
14022 17526 17528 28
14023 17526 17529 28
14024 17526 17530 28
14025 17531 17532 28
14026 17531 17533 28
14027 17531 17534 28
14028 17531 17535 28
14029 17536 17537 28
14030 17536 17538 28
14031 17536 17539 28
14032 17536 17540 28
14033 17541 17542 28
14034 17541 17543 28
14035 17541 17544 28
14036 17541 17545 28
14037 17546 17547 28
14038 17546 17548 28
14039 17546 17549 28
14040 17546 17550 28
14041 17551 17552 28
14042 17551 17553 28
14043 17551 17554 28
14044 17551 17555 28
14045 17556 17557 28
14046 17556 17558 28
14047 17556 17559 28
14048 17556 17560 28
14049 17561 17562 28
14050 17561 17563 28
14051 17561 17564 28
14052 17561 17565 28
14053 17566 17567 28
14054 17566 17568 28
14055 17566 17569 28
14056 17566 17570 28
14057 17571 17572 28
14058 17571 17573 28
14059 17571 17574 28
14060 17571 17575 28
14061 17576 17577 28
14062 17576 17578 28
14063 17576 17579 28
14064 17576 17580 28
14065 17581 17582 28
14066 17581 17583 28
14067 17581 17584 28
14068 17581 17585 28
14069 17586 17587 28
14070 17586 17588 28
14071 17586 17589 28
14072 17586 17590 28
14073 17591 17592 28
14074 17591 17593 28
14075 17591 17594 28
14076 17591 17595 28
14077 17596 17597 28
14078 17596 17598 28
14079 17596 17599 28
14080 17596 17600 28
14081 17601 17602 28
14082 17601 17603 28
14083 17601 17604 28
14084 17601 17605 28
14085 17606 17607 28
14086 17606 17608 28
14087 17606 17609 28
14088 17606 17610 28
14089 17611 17612 28
14090 17611 17613 28
14091 17611 17614 28
14092 17611 17615 28
14093 17616 17617 28
14094 17616 17618 28
14095 17616 17619 28
14096 17616 17620 28
14097 17621 17622 28
14098 17621 17623 28
14099 17621 17624 28
14100 17621 17625 28
14101 17626 17627 28
14102 17626 17628 28
14103 17626 17629 28
14104 17626 17630 28
14105 17631 17632 28
14106 17631 17633 28
14107 17631 17634 28
14108 17631 17635 28
14109 17636 17637 28
14110 17636 17638 28
14111 17636 17639 28
14112 17636 17640 28
14113 17641 17642 28
14114 17641 17643 28
14115 17641 17644 28
14116 17641 17645 28
14117 17646 17647 28
14118 17646 17648 28
14119 17646 17649 28
14120 17646 17650 28
14121 17651 17652 28
14122 17651 17653 28
14123 17651 17654 28
14124 17651 17655 28
14125 17656 17657 28
14126 17656 17658 28
14127 17656 17659 28
14128 17656 17660 28
14129 17661 17662 28
14130 17661 17663 28
14131 17661 17664 28
14132 17661 17665 28
14133 17666 17667 28
14134 17666 17668 28
14135 17666 17669 28
14136 17666 17670 28
14137 17671 17672 28
14138 17671 17673 28
14139 17671 17674 28
14140 17671 17675 28
14141 17676 17677 28
14142 17676 17678 28
14143 17676 17679 28
14144 17676 17680 28
14145 17681 17682 28
14146 17681 17683 28
14147 17681 17684 28
14148 17681 17685 28
14149 17686 17687 28
14150 17686 17688 28
14151 17686 17689 28
14152 17686 17690 28
14153 17691 17692 28
14154 17691 17693 28
14155 17691 17694 28
14156 17691 17695 28
14157 17696 17697 28
14158 17696 17698 28
14159 17696 17699 28
14160 17696 17700 28
14161 17701 17702 28
14162 17701 17703 28
14163 17701 17704 28
14164 17701 17705 28
14165 17706 17707 28
14166 17706 17708 28
14167 17706 17709 28
14168 17706 17710 28
14169 17711 17712 28
14170 17711 17713 28
14171 17711 17714 28
14172 17711 17715 28
14173 17716 17717 28
14174 17716 17718 28
14175 17716 17719 28
14176 17716 17720 28
14177 17721 17722 28
14178 17721 17723 28
14179 17721 17724 28
14180 17721 17725 28
14181 17726 17727 28
14182 17726 17728 28
14183 17726 17729 28
14184 17726 17730 28
14185 17731 17732 28
14186 17731 17733 28
14187 17731 17734 28
14188 17731 17735 28
14189 17736 17737 28
14190 17736 17738 28
14191 17736 17739 28
14192 17736 17740 28
14193 17741 17742 28
14194 17741 17743 28
14195 17741 17744 28
14196 17741 17745 28
14197 17746 17747 28
14198 17746 17748 28
14199 17746 17749 28
14200 17746 17750 28
14201 17751 17752 28
14202 17751 17753 28
14203 17751 17754 28
14204 17751 17755 28
14205 17756 17757 28
14206 17756 17758 28
14207 17756 17759 28
14208 17756 17760 28
14209 17761 17762 28
14210 17761 17763 28
14211 17761 17764 28
14212 17761 17765 28
14213 17766 17767 28
14214 17766 17768 28
14215 17766 17769 28
14216 17766 17770 28
14217 17771 17772 28
14218 17771 17773 28
14219 17771 17774 28
14220 17771 17775 28
14221 17776 17777 28
14222 17776 17778 28
14223 17776 17779 28
14224 17776 17780 28
14225 17781 17782 28
14226 17781 17783 28
14227 17781 17784 28
14228 17781 17785 28
14229 17786 17787 28
14230 17786 17788 28
14231 17786 17789 28
14232 17786 17790 28
14233 17791 17792 28
14234 17791 17793 28
14235 17791 17794 28
14236 17791 17795 28
14237 17796 17797 28
14238 17796 17798 28
14239 17796 17799 28
14240 17796 17800 28
14241 17801 17802 28
14242 17801 17803 28
14243 17801 17804 28
14244 17801 17805 28
14245 17806 17807 28
14246 17806 17808 28
14247 17806 17809 28
14248 17806 17810 28
14249 17811 17812 28
14250 17811 17813 28
14251 17811 17814 28
14252 17811 17815 28
14253 17816 17817 28
14254 17816 17818 28
14255 17816 17819 28
14256 17816 17820 28
14257 17821 17822 28
14258 17821 17823 28
14259 17821 17824 28
14260 17821 17825 28
14261 17826 17827 28
14262 17826 17828 28
14263 17826 17829 28
14264 17826 17830 28
14265 17831 17832 28
14266 17831 17833 28
14267 17831 17834 28
14268 17831 17835 28
14269 17836 17837 28
14270 17836 17838 28
14271 17836 17839 28
14272 17836 17840 28
14273 17841 17842 28
14274 17841 17843 28
14275 17841 17844 28
14276 17841 17845 28
14277 17846 17847 28
14278 17846 17848 28
14279 17846 17849 28
14280 17846 17850 28
14281 17851 17852 28
14282 17851 17853 28
14283 17851 17854 28
14284 17851 17855 28
14285 17856 17857 28
14286 17856 17858 28
14287 17856 17859 28
14288 17856 17860 28
14289 17861 17862 28
14290 17861 17863 28
14291 17861 17864 28
14292 17861 17865 28
14293 17866 17867 28
14294 17866 17868 28
14295 17866 17869 28
14296 17866 17870 28
14297 17871 17872 28
14298 17871 17873 28
14299 17871 17874 28
14300 17871 17875 28
14301 17876 17877 28
14302 17876 17878 28
14303 17876 17879 28
14304 17876 17880 28
14305 17881 17882 28
14306 17881 17883 28
14307 17881 17884 28
14308 17881 17885 28
14309 17886 17887 28
14310 17886 17888 28
14311 17886 17889 28
14312 17886 17890 28
14313 17891 17892 28
14314 17891 17893 28
14315 17891 17894 28
14316 17891 17895 28
14317 17896 17897 28
14318 17896 17898 28
14319 17896 17899 28
14320 17896 17900 28
14321 17901 17902 28
14322 17901 17903 28
14323 17901 17904 28
14324 17901 17905 28
14325 17906 17907 28
14326 17906 17908 28
14327 17906 17909 28
14328 17906 17910 28
14329 17911 17912 28
14330 17911 17913 28
14331 17911 17914 28
14332 17911 17915 28
14333 17916 17917 28
14334 17916 17918 28
14335 17916 17919 28
14336 17916 17920 28
14337 17921 17922 28
14338 17921 17923 28
14339 17921 17924 28
14340 17921 17925 28
14341 17926 17927 28
14342 17926 17928 28
14343 17926 17929 28
14344 17926 17930 28
14345 17931 17932 28
14346 17931 17933 28
14347 17931 17934 28
14348 17931 17935 28
14349 17936 17937 28
14350 17936 17938 28
14351 17936 17939 28
14352 17936 17940 28
14353 17941 17942 28
14354 17941 17943 28
14355 17941 17944 28
14356 17941 17945 28
14357 17946 17947 28
14358 17946 17948 28
14359 17946 17949 28
14360 17946 17950 28
14361 17951 17952 28
14362 17951 17953 28
14363 17951 17954 28
14364 17951 17955 28
14365 17956 17957 28
14366 17956 17958 28
14367 17956 17959 28
14368 17956 17960 28
14369 17961 17962 28
14370 17961 17963 28
14371 17961 17964 28
14372 17961 17965 28
14373 17966 17967 28
14374 17966 17968 28
14375 17966 17969 28
14376 17966 17970 28
14377 17971 17972 28
14378 17971 17973 28
14379 17971 17974 28
14380 17971 17975 28
14381 17976 17977 28
14382 17976 17978 28
14383 17976 17979 28
14384 17976 17980 28
14385 17981 17982 28
14386 17981 17983 28
14387 17981 17984 28
14388 17981 17985 28
14389 17986 17987 28
14390 17986 17988 28
14391 17986 17989 28
14392 17986 17990 28
14393 17991 17992 28
14394 17991 17993 28
14395 17991 17994 28
14396 17991 17995 28
14397 17996 17997 28
14398 17996 17998 28
14399 17996 17999 28
14400 17996 18000 28
14401 18001 18002 28
14402 18001 18003 28
14403 18001 18004 28
14404 18001 18005 28
14405 18006 18007 28
14406 18006 18008 28
14407 18006 18009 28
14408 18006 18010 28
14409 18011 18012 28
14410 18011 18013 28
14411 18011 18014 28
14412 18011 18015 28
14413 18016 18017 28
14414 18016 18018 28
14415 18016 18019 28
14416 18016 18020 28
14417 18021 18022 28
14418 18021 18023 28
14419 18021 18024 28
14420 18021 18025 28
14421 18026 18027 28
14422 18026 18028 28
14423 18026 18029 28
14424 18026 18030 28
14425 18031 18032 28
14426 18031 18033 28
14427 18031 18034 28
14428 18031 18035 28
14429 18036 18037 28
14430 18036 18038 28
14431 18036 18039 28
14432 18036 18040 28
14433 18041 18042 28
14434 18041 18043 28
14435 18041 18044 28
14436 18041 18045 28
14437 18046 18047 28
14438 18046 18048 28
14439 18046 18049 28
14440 18046 18050 28
14441 18051 18052 28
14442 18051 18053 28
14443 18051 18054 28
14444 18051 18055 28
14445 18056 18057 28
14446 18056 18058 28
14447 18056 18059 28
14448 18056 18060 28
14449 18061 18062 28
14450 18061 18063 28
14451 18061 18064 28
14452 18061 18065 28
14453 18066 18067 28
14454 18066 18068 28
14455 18066 18069 28
14456 18066 18070 28
14457 18071 18072 28
14458 18071 18073 28
14459 18071 18074 28
14460 18071 18075 28
14461 18076 18077 28
14462 18076 18078 28
14463 18076 18079 28
14464 18076 18080 28
14465 18081 18082 28
14466 18081 18083 28
14467 18081 18084 28
14468 18081 18085 28
14469 18086 18087 28
14470 18086 18088 28
14471 18086 18089 28
14472 18086 18090 28
14473 18091 18092 28
14474 18091 18093 28
14475 18091 18094 28
14476 18091 18095 28
14477 18096 18097 28
14478 18096 18098 28
14479 18096 18099 28
14480 18096 18100 28
14481 18101 18102 28
14482 18101 18103 28
14483 18101 18104 28
14484 18101 18105 28
14485 18106 18107 28
14486 18106 18108 28
14487 18106 18109 28
14488 18106 18110 28
14489 18111 18112 28
14490 18111 18113 28
14491 18111 18114 28
14492 18111 18115 28
14493 18116 18117 28
14494 18116 18118 28
14495 18116 18119 28
14496 18116 18120 28
14497 18121 18122 28
14498 18121 18123 28
14499 18121 18124 28
14500 18121 18125 28
14501 18126 18127 28
14502 18126 18128 28
14503 18126 18129 28
14504 18126 18130 28
14505 18131 18132 28
14506 18131 18133 28
14507 18131 18134 28
14508 18131 18135 28
14509 18136 18137 28
14510 18136 18138 28
14511 18136 18139 28
14512 18136 18140 28
14513 18141 18142 28
14514 18141 18143 28
14515 18141 18144 28
14516 18141 18145 28
14517 18146 18147 28
14518 18146 18148 28
14519 18146 18149 28
14520 18146 18150 28
14521 18151 18152 28
14522 18151 18153 28
14523 18151 18154 28
14524 18151 18155 28
14525 18156 18157 28
14526 18156 18158 28
14527 18156 18159 28
14528 18156 18160 28
14529 18161 18162 28
14530 18161 18163 28
14531 18161 18164 28
14532 18161 18165 28
14533 18166 18167 28
14534 18166 18168 28
14535 18166 18169 28
14536 18166 18170 28
14537 18171 18172 28
14538 18171 18173 28
14539 18171 18174 28
14540 18171 18175 28
14541 18176 18177 28
14542 18176 18178 28
14543 18176 18179 28
14544 18176 18180 28
14545 18181 18182 28
14546 18181 18183 28
14547 18181 18184 28
14548 18181 18185 28
14549 18186 18187 28
14550 18186 18188 28
14551 18186 18189 28
14552 18186 18190 28
14553 18191 18192 28
14554 18191 18193 28
14555 18191 18194 28
14556 18191 18195 28
14557 18196 18197 28
14558 18196 18198 28
14559 18196 18199 28
14560 18196 18200 28
14561 18201 18202 28
14562 18201 18203 28
14563 18201 18204 28
14564 18201 18205 28
14565 18206 18207 28
14566 18206 18208 28
14567 18206 18209 28
14568 18206 18210 28
14569 18211 18212 28
14570 18211 18213 28
14571 18211 18214 28
14572 18211 18215 28
14573 18216 18217 28
14574 18216 18218 28
14575 18216 18219 28
14576 18216 18220 28
14577 18221 18222 28
14578 18221 18223 28
14579 18221 18224 28
14580 18221 18225 28
14581 18226 18227 28
14582 18226 18228 28
14583 18226 18229 28
14584 18226 18230 28
14585 18231 18232 28
14586 18231 18233 28
14587 18231 18234 28
14588 18231 18235 28
14589 18236 18237 28
14590 18236 18238 28
14591 18236 18239 28
14592 18236 18240 28
14593 18241 18242 28
14594 18241 18243 28
14595 18241 18244 28
14596 18241 18245 28
14597 18246 18247 28
14598 18246 18248 28
14599 18246 18249 28
14600 18246 18250 28
14601 18251 18252 28
14602 18251 18253 28
14603 18251 18254 28
14604 18251 18255 28
14605 18256 18257 28
14606 18256 18258 28
14607 18256 18259 28
14608 18256 18260 28
14609 18261 18262 28
14610 18261 18263 28
14611 18261 18264 28
14612 18261 18265 28
14613 18266 18267 28
14614 18266 18268 28
14615 18266 18269 28
14616 18266 18270 28
14617 18271 18272 28
14618 18271 18273 28
14619 18271 18274 28
14620 18271 18275 28
14621 18276 18277 28
14622 18276 18278 28
14623 18276 18279 28
14624 18276 18280 28
14625 18281 18282 28
14626 18281 18283 28
14627 18281 18284 28
14628 18281 18285 28
14629 18286 18287 28
14630 18286 18288 28
14631 18286 18289 28
14632 18286 18290 28
14633 18291 18292 28
14634 18291 18293 28
14635 18291 18294 28
14636 18291 18295 28
14637 18296 18297 28
14638 18296 18298 28
14639 18296 18299 28
14640 18296 18300 28
14641 18301 18302 28
14642 18301 18303 28
14643 18301 18304 28
14644 18301 18305 28
14645 18306 18307 28
14646 18306 18308 28
14647 18306 18309 28
14648 18306 18310 28
14649 18311 18312 28
14650 18311 18313 28
14651 18311 18314 28
14652 18311 18315 28
14653 18316 18317 28
14654 18316 18318 28
14655 18316 18319 28
14656 18316 18320 28
14657 18321 18322 28
14658 18321 18323 28
14659 18321 18324 28
14660 18321 18325 28
14661 18326 18327 28
14662 18326 18328 28
14663 18326 18329 28
14664 18326 18330 28
14665 18331 18332 28
14666 18331 18333 28
14667 18331 18334 28
14668 18331 18335 28
14669 18336 18337 28
14670 18336 18338 28
14671 18336 18339 28
14672 18336 18340 28
14673 18341 18342 28
14674 18341 18343 28
14675 18341 18344 28
14676 18341 18345 28
14677 18346 18347 28
14678 18346 18348 28
14679 18346 18349 28
14680 18346 18350 28
14681 18351 18352 28
14682 18351 18353 28
14683 18351 18354 28
14684 18351 18355 28
14685 18356 18357 28
14686 18356 18358 28
14687 18356 18359 28
14688 18356 18360 28
14689 18361 18362 28
14690 18361 18363 28
14691 18361 18364 28
14692 18361 18365 28
14693 18366 18367 28
14694 18366 18368 28
14695 18366 18369 28
14696 18366 18370 28
14697 18371 18372 28
14698 18371 18373 28
14699 18371 18374 28
14700 18371 18375 28
14701 18376 18377 28
14702 18376 18378 28
14703 18376 18379 28
14704 18376 18380 28
14705 18381 18382 28
14706 18381 18383 28
14707 18381 18384 28
14708 18381 18385 28
14709 18386 18387 28
14710 18386 18388 28
14711 18386 18389 28
14712 18386 18390 28
14713 18391 18392 28
14714 18391 18393 28
14715 18391 18394 28
14716 18391 18395 28
14717 18396 18397 28
14718 18396 18398 28
14719 18396 18399 28
14720 18396 18400 28
14721 18401 18402 28
14722 18401 18403 28
14723 18401 18404 28
14724 18401 18405 28
14725 18406 18407 28
14726 18406 18408 28
14727 18406 18409 28
14728 18406 18410 28
14729 18411 18412 28
14730 18411 18413 28
14731 18411 18414 28
14732 18411 18415 28
14733 18416 18417 28
14734 18416 18418 28
14735 18416 18419 28
14736 18416 18420 28
14737 18421 18422 28
14738 18421 18423 28
14739 18421 18424 28
14740 18421 18425 28
14741 18426 18427 28
14742 18426 18428 28
14743 18426 18429 28
14744 18426 18430 28
14745 18431 18432 28
14746 18431 18433 28
14747 18431 18434 28
14748 18431 18435 28
14749 18436 18437 28
14750 18436 18438 28
14751 18436 18439 28
14752 18436 18440 28
14753 18441 18442 28
14754 18441 18443 28
14755 18441 18444 28
14756 18441 18445 28
14757 18446 18447 28
14758 18446 18448 28
14759 18446 18449 28
14760 18446 18450 28
14761 18451 18452 28
14762 18451 18453 28
14763 18451 18454 28
14764 18451 18455 28
14765 18456 18457 28
14766 18456 18458 28
14767 18456 18459 28
14768 18456 18460 28
14769 18461 18462 28
14770 18461 18463 28
14771 18461 18464 28
14772 18461 18465 28
14773 18466 18467 28
14774 18466 18468 28
14775 18466 18469 28
14776 18466 18470 28
14777 18471 18472 28
14778 18471 18473 28
14779 18471 18474 28
14780 18471 18475 28
14781 18476 18477 28
14782 18476 18478 28
14783 18476 18479 28
14784 18476 18480 28
14785 18481 18482 28
14786 18481 18483 28
14787 18481 18484 28
14788 18481 18485 28
14789 18486 18487 28
14790 18486 18488 28
14791 18486 18489 28
14792 18486 18490 28
14793 18491 18492 28
14794 18491 18493 28
14795 18491 18494 28
14796 18491 18495 28
14797 18496 18497 28
14798 18496 18498 28
14799 18496 18499 28
14800 18496 18500 28
14801 18501 18502 28
14802 18501 18503 28
14803 18501 18504 28
14804 18501 18505 28
14805 18506 18507 28
14806 18506 18508 28
14807 18506 18509 28
14808 18506 18510 28
14809 18511 18512 28
14810 18511 18513 28
14811 18511 18514 28
14812 18511 18515 28
14813 18516 18517 28
14814 18516 18518 28
14815 18516 18519 28
14816 18516 18520 28
14817 18521 18522 28
14818 18521 18523 28
14819 18521 18524 28
14820 18521 18525 28
14821 18526 18527 28
14822 18526 18528 28
14823 18526 18529 28
14824 18526 18530 28
14825 18531 18532 28
14826 18531 18533 28
14827 18531 18534 28
14828 18531 18535 28
14829 18536 18537 28
14830 18536 18538 28
14831 18536 18539 28
14832 18536 18540 28
14833 18541 18542 28
14834 18541 18543 28
14835 18541 18544 28
14836 18541 18545 28
14837 18546 18547 28
14838 18546 18548 28
14839 18546 18549 28
14840 18546 18550 28
14841 18551 18552 28
14842 18551 18553 28
14843 18551 18554 28
14844 18551 18555 28
14845 18556 18557 28
14846 18556 18558 28
14847 18556 18559 28
14848 18556 18560 28
14849 18561 18562 28
14850 18561 18563 28
14851 18561 18564 28
14852 18561 18565 28
14853 18566 18567 28
14854 18566 18568 28
14855 18566 18569 28
14856 18566 18570 28
14857 18571 18572 28
14858 18571 18573 28
14859 18571 18574 28
14860 18571 18575 28
14861 18576 18577 28
14862 18576 18578 28
14863 18576 18579 28
14864 18576 18580 28
14865 18581 18582 28
14866 18581 18583 28
14867 18581 18584 28
14868 18581 18585 28
14869 18586 18587 28
14870 18586 18588 28
14871 18586 18589 28
14872 18586 18590 28
14873 18591 18592 28
14874 18591 18593 28
14875 18591 18594 28
14876 18591 18595 28
14877 18596 18597 28
14878 18596 18598 28
14879 18596 18599 28
14880 18596 18600 28
14881 18601 18602 28
14882 18601 18603 28
14883 18601 18604 28
14884 18601 18605 28
14885 18606 18607 28
14886 18606 18608 28
14887 18606 18609 28
14888 18606 18610 28
14889 18611 18612 28
14890 18611 18613 28
14891 18611 18614 28
14892 18611 18615 28
14893 18616 18617 28
14894 18616 18618 28
14895 18616 18619 28
14896 18616 18620 28
14897 18621 18622 28
14898 18621 18623 28
14899 18621 18624 28
14900 18621 18625 28
14901 18626 18627 28
14902 18626 18628 28
14903 18626 18629 28
14904 18626 18630 28
14905 18631 18632 28
14906 18631 18633 28
14907 18631 18634 28
14908 18631 18635 28
14909 18636 18637 28
14910 18636 18638 28
14911 18636 18639 28
14912 18636 18640 28
14913 18641 18642 28
14914 18641 18643 28
14915 18641 18644 28
14916 18641 18645 28
14917 18646 18647 28
14918 18646 18648 28
14919 18646 18649 28
14920 18646 18650 28
14921 18651 18652 28
14922 18651 18653 28
14923 18651 18654 28
14924 18651 18655 28
14925 18656 18657 28
14926 18656 18658 28
14927 18656 18659 28
14928 18656 18660 28
14929 18661 18662 28
14930 18661 18663 28
14931 18661 18664 28
14932 18661 18665 28
14933 18666 18667 28
14934 18666 18668 28
14935 18666 18669 28
14936 18666 18670 28
14937 18671 18672 28
14938 18671 18673 28
14939 18671 18674 28
14940 18671 18675 28
14941 18676 18677 28
14942 18676 18678 28
14943 18676 18679 28
14944 18676 18680 28
14945 18681 18682 28
14946 18681 18683 28
14947 18681 18684 28
14948 18681 18685 28
14949 18686 18687 28
14950 18686 18688 28
14951 18686 18689 28
14952 18686 18690 28
14953 18691 18692 28
14954 18691 18693 28
14955 18691 18694 28
14956 18691 18695 28
14957 18696 18697 28
14958 18696 18698 28
14959 18696 18699 28
14960 18696 18700 28
14961 18701 18702 28
14962 18701 18703 28
14963 18701 18704 28
14964 18701 18705 28
14965 18706 18707 28
14966 18706 18708 28
14967 18706 18709 28
14968 18706 18710 28
14969 18711 18712 28
14970 18711 18713 28
14971 18711 18714 28
14972 18711 18715 28
14973 18716 18717 28
14974 18716 18718 28
14975 18716 18719 28
14976 18716 18720 28
14977 18721 18722 28
14978 18721 18723 28
14979 18721 18724 28
14980 18721 18725 28
14981 18726 18727 28
14982 18726 18728 28
14983 18726 18729 28
14984 18726 18730 28
14985 18731 18732 28
14986 18731 18733 28
14987 18731 18734 28
14988 18731 18735 28
14989 18736 18737 28
14990 18736 18738 28
14991 18736 18739 28
14992 18736 18740 28
14993 18741 18742 28
14994 18741 18743 28
14995 18741 18744 28
14996 18741 18745 28
14997 18746 18747 28
14998 18746 18748 28
14999 18746 18749 28
15000 18746 18750 28
15001 18751 18752 28
15002 18751 18753 28
15003 18751 18754 28
15004 18751 18755 28
15005 18756 18757 28
15006 18756 18758 28
15007 18756 18759 28
15008 18756 18760 28
15009 18761 18762 28
15010 18761 18763 28
15011 18761 18764 28
15012 18761 18765 28
15013 18766 18767 28
15014 18766 18768 28
15015 18766 18769 28
15016 18766 18770 28
15017 18771 18772 28
15018 18771 18773 28
15019 18771 18774 28
15020 18771 18775 28
15021 18776 18777 28
15022 18776 18778 28
15023 18776 18779 28
15024 18776 18780 28
15025 18781 18782 28
15026 18781 18783 28
15027 18781 18784 28
15028 18781 18785 28
15029 18786 18787 28
15030 18786 18788 28
15031 18786 18789 28
15032 18786 18790 28
15033 18791 18792 28
15034 18791 18793 28
15035 18791 18794 28
15036 18791 18795 28
15037 18796 18797 28
15038 18796 18798 28
15039 18796 18799 28
15040 18796 18800 28
15041 18801 18802 28
15042 18801 18803 28
15043 18801 18804 28
15044 18801 18805 28
15045 18806 18807 28
15046 18806 18808 28
15047 18806 18809 28
15048 18806 18810 28
15049 18811 18812 28
15050 18811 18813 28
15051 18811 18814 28
15052 18811 18815 28
15053 18816 18817 28
15054 18816 18818 28
15055 18816 18819 28
15056 18816 18820 28
15057 18821 18822 28
15058 18821 18823 28
15059 18821 18824 28
15060 18821 18825 28
15061 18826 18827 28
15062 18826 18828 28
15063 18826 18829 28
15064 18826 18830 28
15065 18831 18832 28
15066 18831 18833 28
15067 18831 18834 28
15068 18831 18835 28
15069 18836 18837 28
15070 18836 18838 28
15071 18836 18839 28
15072 18836 18840 28
15073 18841 18842 28
15074 18841 18843 28
15075 18841 18844 28
15076 18841 18845 28
15077 18846 18847 28
15078 18846 18848 28
15079 18846 18849 28
15080 18846 18850 28
15081 18851 18852 28
15082 18851 18853 28
15083 18851 18854 28
15084 18851 18855 28
15085 18856 18857 28
15086 18856 18858 28
15087 18856 18859 28
15088 18856 18860 28
15089 18861 18862 28
15090 18861 18863 28
15091 18861 18864 28
15092 18861 18865 28
15093 18866 18867 28
15094 18866 18868 28
15095 18866 18869 28
15096 18866 18870 28
15097 18871 18872 28
15098 18871 18873 28
15099 18871 18874 28
15100 18871 18875 28
15101 18876 18877 28
15102 18876 18878 28
15103 18876 18879 28
15104 18876 18880 28
15105 18881 18882 28
15106 18881 18883 28
15107 18881 18884 28
15108 18881 18885 28
15109 18886 18887 28
15110 18886 18888 28
15111 18886 18889 28
15112 18886 18890 28
15113 18891 18892 28
15114 18891 18893 28
15115 18891 18894 28
15116 18891 18895 28
15117 18896 18897 28
15118 18896 18898 28
15119 18896 18899 28
15120 18896 18900 28
15121 18901 18902 28
15122 18901 18903 28
15123 18901 18904 28
15124 18901 18905 28
15125 18906 18907 28
15126 18906 18908 28
15127 18906 18909 28
15128 18906 18910 28
15129 18911 18912 28
15130 18911 18913 28
15131 18911 18914 28
15132 18911 18915 28
15133 18916 18917 28
15134 18916 18918 28
15135 18916 18919 28
15136 18916 18920 28
15137 18921 18922 28
15138 18921 18923 28
15139 18921 18924 28
15140 18921 18925 28
15141 18926 18927 28
15142 18926 18928 28
15143 18926 18929 28
15144 18926 18930 28
15145 18931 18932 28
15146 18931 18933 28
15147 18931 18934 28
15148 18931 18935 28
15149 18936 18937 28
15150 18936 18938 28
15151 18936 18939 28
15152 18936 18940 28
15153 18941 18942 28
15154 18941 18943 28
15155 18941 18944 28
15156 18941 18945 28
15157 18946 18947 28
15158 18946 18948 28
15159 18946 18949 28
15160 18946 18950 28
15161 18951 18952 28
15162 18951 18953 28
15163 18951 18954 28
15164 18951 18955 28
15165 18956 18957 28
15166 18956 18958 28
15167 18956 18959 28
15168 18956 18960 28
15169 18961 18962 28
15170 18961 18963 28
15171 18961 18964 28
15172 18961 18965 28
15173 18966 18967 28
15174 18966 18968 28
15175 18966 18969 28
15176 18966 18970 28
15177 18971 18972 28
15178 18971 18973 28
15179 18971 18974 28
15180 18971 18975 28
15181 18976 18977 28
15182 18976 18978 28
15183 18976 18979 28
15184 18976 18980 28
15185 18981 18982 28
15186 18981 18983 28
15187 18981 18984 28
15188 18981 18985 28
15189 18986 18987 28
15190 18986 18988 28
15191 18986 18989 28
15192 18986 18990 28
15193 18991 18992 28
15194 18991 18993 28
15195 18991 18994 28
15196 18991 18995 28
15197 18996 18997 28
15198 18996 18998 28
15199 18996 18999 28
15200 18996 19000 28
15201 19001 19002 28
15202 19001 19003 28
15203 19001 19004 28
15204 19001 19005 28
15205 19006 19007 28
15206 19006 19008 28
15207 19006 19009 28
15208 19006 19010 28
15209 19011 19012 28
15210 19011 19013 28
15211 19011 19014 28
15212 19011 19015 28
15213 19016 19017 28
15214 19016 19018 28
15215 19016 19019 28
15216 19016 19020 28
15217 19021 19022 28
15218 19021 19023 28
15219 19021 19024 28
15220 19021 19025 28
15221 19026 19027 28
15222 19026 19028 28
15223 19026 19029 28
15224 19026 19030 28
15225 19031 19032 28
15226 19031 19033 28
15227 19031 19034 28
15228 19031 19035 28
15229 19036 19037 28
15230 19036 19038 28
15231 19036 19039 28
15232 19036 19040 28
15233 19041 19042 28
15234 19041 19043 28
15235 19041 19044 28
15236 19041 19045 28
15237 19046 19047 28
15238 19046 19048 28
15239 19046 19049 28
15240 19046 19050 28
15241 19051 19052 28
15242 19051 19053 28
15243 19051 19054 28
15244 19051 19055 28
15245 19056 19057 28
15246 19056 19058 28
15247 19056 19059 28
15248 19056 19060 28
15249 19061 19062 28
15250 19061 19063 28
15251 19061 19064 28
15252 19061 19065 28
15253 19066 19067 28
15254 19066 19068 28
15255 19066 19069 28
15256 19066 19070 28
15257 19071 19072 28
15258 19071 19073 28
15259 19071 19074 28
15260 19071 19075 28
15261 19076 19077 28
15262 19076 19078 28
15263 19076 19079 28
15264 19076 19080 28
15265 19081 19082 28
15266 19081 19083 28
15267 19081 19084 28
15268 19081 19085 28
15269 19086 19087 28
15270 19086 19088 28
15271 19086 19089 28
15272 19086 19090 28
15273 19091 19092 28
15274 19091 19093 28
15275 19091 19094 28
15276 19091 19095 28
15277 19096 19097 28
15278 19096 19098 28
15279 19096 19099 28
15280 19096 19100 28
15281 19101 19102 28
15282 19101 19103 28
15283 19101 19104 28
15284 19101 19105 28
15285 19106 19107 28
15286 19106 19108 28
15287 19106 19109 28
15288 19106 19110 28
15289 19111 19112 28
15290 19111 19113 28
15291 19111 19114 28
15292 19111 19115 28
15293 19116 19117 28
15294 19116 19118 28
15295 19116 19119 28
15296 19116 19120 28
15297 19121 19122 28
15298 19121 19123 28
15299 19121 19124 28
15300 19121 19125 28
15301 19126 19127 28
15302 19126 19128 28
15303 19126 19129 28
15304 19126 19130 28
15305 19131 19132 28
15306 19131 19133 28
15307 19131 19134 28
15308 19131 19135 28
15309 19136 19137 28
15310 19136 19138 28
15311 19136 19139 28
15312 19136 19140 28
15313 19141 19142 28
15314 19141 19143 28
15315 19141 19144 28
15316 19141 19145 28
15317 19146 19147 28
15318 19146 19148 28
15319 19146 19149 28
15320 19146 19150 28
15321 19151 19152 28
15322 19151 19153 28
15323 19151 19154 28
15324 19151 19155 28
15325 19156 19157 28
15326 19156 19158 28
15327 19156 19159 28
15328 19156 19160 28
15329 19161 19162 28
15330 19161 19163 28
15331 19161 19164 28
15332 19161 19165 28
15333 19166 19167 28
15334 19166 19168 28
15335 19166 19169 28
15336 19166 19170 28
15337 19171 19172 28
15338 19171 19173 28
15339 19171 19174 28
15340 19171 19175 28
15341 19176 19177 28
15342 19176 19178 28
15343 19176 19179 28
15344 19176 19180 28
15345 19181 19182 28
15346 19181 19183 28
15347 19181 19184 28
15348 19181 19185 28
15349 19186 19187 28
15350 19186 19188 28
15351 19186 19189 28
15352 19186 19190 28
15353 19191 19192 28
15354 19191 19193 28
15355 19191 19194 28
15356 19191 19195 28
15357 19196 19197 28
15358 19196 19198 28
15359 19196 19199 28
15360 19196 19200 28
15361 19201 19202 28
15362 19201 19203 28
15363 19201 19204 28
15364 19201 19205 28
15365 19206 19207 28
15366 19206 19208 28
15367 19206 19209 28
15368 19206 19210 28
15369 19211 19212 28
15370 19211 19213 28
15371 19211 19214 28
15372 19211 19215 28
15373 19216 19217 28
15374 19216 19218 28
15375 19216 19219 28
15376 19216 19220 28
15377 19221 19222 28
15378 19221 19223 28
15379 19221 19224 28
15380 19221 19225 28
15381 19226 19227 28
15382 19226 19228 28
15383 19226 19229 28
15384 19226 19230 28
15385 19231 19232 28
15386 19231 19233 28
15387 19231 19234 28
15388 19231 19235 28
15389 19236 19237 28
15390 19236 19238 28
15391 19236 19239 28
15392 19236 19240 28
15393 19241 19242 28
15394 19241 19243 28
15395 19241 19244 28
15396 19241 19245 28
15397 19246 19247 28
15398 19246 19248 28
15399 19246 19249 28
15400 19246 19250 28
15401 19251 19252 28
15402 19251 19253 28
15403 19251 19254 28
15404 19251 19255 28
15405 19256 19257 28
15406 19256 19258 28
15407 19256 19259 28
15408 19256 19260 28
15409 19261 19262 28
15410 19261 19263 28
15411 19261 19264 28
15412 19261 19265 28
15413 19266 19267 28
15414 19266 19268 28
15415 19266 19269 28
15416 19266 19270 28
15417 19271 19272 28
15418 19271 19273 28
15419 19271 19274 28
15420 19271 19275 28
15421 19276 19277 28
15422 19276 19278 28
15423 19276 19279 28
15424 19276 19280 28
15425 19281 19282 28
15426 19281 19283 28
15427 19281 19284 28
15428 19281 19285 28
15429 19286 19287 28
15430 19286 19288 28
15431 19286 19289 28
15432 19286 19290 28
15433 19291 19292 28
15434 19291 19293 28
15435 19291 19294 28
15436 19291 19295 28
15437 19296 19297 28
15438 19296 19298 28
15439 19296 19299 28
15440 19296 19300 28
15441 19301 19302 28
15442 19301 19303 28
15443 19301 19304 28
15444 19301 19305 28
15445 19306 19307 28
15446 19306 19308 28
15447 19306 19309 28
15448 19306 19310 28
15449 19311 19312 28
15450 19311 19313 28
15451 19311 19314 28
15452 19311 19315 28
15453 19316 19317 28
15454 19316 19318 28
15455 19316 19319 28
15456 19316 19320 28
15457 19321 19322 28
15458 19321 19323 28
15459 19321 19324 28
15460 19321 19325 28
15461 19326 19327 28
15462 19326 19328 28
15463 19326 19329 28
15464 19326 19330 28
15465 19331 19332 28
15466 19331 19333 28
15467 19331 19334 28
15468 19331 19335 28
15469 19336 19337 28
15470 19336 19338 28
15471 19336 19339 28
15472 19336 19340 28
15473 19341 19342 28
15474 19341 19343 28
15475 19341 19344 28
15476 19341 19345 28
15477 19346 19347 28
15478 19346 19348 28
15479 19346 19349 28
15480 19346 19350 28
15481 19351 19352 28
15482 19351 19353 28
15483 19351 19354 28
15484 19351 19355 28
15485 19356 19357 28
15486 19356 19358 28
15487 19356 19359 28
15488 19356 19360 28
15489 19361 19362 28
15490 19361 19363 28
15491 19361 19364 28
15492 19361 19365 28
15493 19366 19367 28
15494 19366 19368 28
15495 19366 19369 28
15496 19366 19370 28
15497 19371 19372 28
15498 19371 19373 28
15499 19371 19374 28
15500 19371 19375 28
15501 19376 19377 28
15502 19376 19378 28
15503 19376 19379 28
15504 19376 19380 28
15505 19381 19382 28
15506 19381 19383 28
15507 19381 19384 28
15508 19381 19385 28
15509 19386 19387 28
15510 19386 19388 28
15511 19386 19389 28
15512 19386 19390 28
15513 19391 19392 28
15514 19391 19393 28
15515 19391 19394 28
15516 19391 19395 28
15517 19396 19397 28
15518 19396 19398 28
15519 19396 19399 28
15520 19396 19400 28
15521 19401 19402 28
15522 19401 19403 28
15523 19401 19404 28
15524 19401 19405 28
15525 19406 19407 28
15526 19406 19408 28
15527 19406 19409 28
15528 19406 19410 28
15529 19411 19412 28
15530 19411 19413 28
15531 19411 19414 28
15532 19411 19415 28
15533 19416 19417 28
15534 19416 19418 28
15535 19416 19419 28
15536 19416 19420 28
15537 19421 19422 28
15538 19421 19423 28
15539 19421 19424 28
15540 19421 19425 28
15541 19426 19427 28
15542 19426 19428 28
15543 19426 19429 28
15544 19426 19430 28
15545 19431 19432 28
15546 19431 19433 28
15547 19431 19434 28
15548 19431 19435 28
15549 19436 19437 28
15550 19436 19438 28
15551 19436 19439 28
15552 19436 19440 28
15553 19441 19442 28
15554 19441 19443 28
15555 19441 19444 28
15556 19441 19445 28
15557 19446 19447 28
15558 19446 19448 28
15559 19446 19449 28
15560 19446 19450 28
15561 19451 19452 28
15562 19451 19453 28
15563 19451 19454 28
15564 19451 19455 28
15565 19456 19457 28
15566 19456 19458 28
15567 19456 19459 28
15568 19456 19460 28
15569 19461 19462 28
15570 19461 19463 28
15571 19461 19464 28
15572 19461 19465 28
15573 19466 19467 28
15574 19466 19468 28
15575 19466 19469 28
15576 19466 19470 28
15577 19471 19472 28
15578 19471 19473 28
15579 19471 19474 28
15580 19471 19475 28
15581 19476 19477 28
15582 19476 19478 28
15583 19476 19479 28
15584 19476 19480 28
15585 19481 19482 28
15586 19481 19483 28
15587 19481 19484 28
15588 19481 19485 28
15589 19486 19487 28
15590 19486 19488 28
15591 19486 19489 28
15592 19486 19490 28
15593 19491 19492 28
15594 19491 19493 28
15595 19491 19494 28
15596 19491 19495 28
15597 19496 19497 28
15598 19496 19498 28
15599 19496 19499 28
15600 19496 19500 28
15601 19501 19502 28
15602 19501 19503 28
15603 19501 19504 28
15604 19501 19505 28
15605 19506 19507 28
15606 19506 19508 28
15607 19506 19509 28
15608 19506 19510 28
15609 19511 19512 28
15610 19511 19513 28
15611 19511 19514 28
15612 19511 19515 28
15613 19516 19517 28
15614 19516 19518 28
15615 19516 19519 28
15616 19516 19520 28
15617 19521 19522 28
15618 19521 19523 28
15619 19521 19524 28
15620 19521 19525 28
15621 19526 19527 28
15622 19526 19528 28
15623 19526 19529 28
15624 19526 19530 28
15625 19531 19532 28
15626 19531 19533 28
15627 19531 19534 28
15628 19531 19535 28
15629 19536 19537 28
15630 19536 19538 28
15631 19536 19539 28
15632 19536 19540 28
15633 19541 19542 28
15634 19541 19543 28
15635 19541 19544 28
15636 19541 19545 28
15637 19546 19547 28
15638 19546 19548 28
15639 19546 19549 28
15640 19546 19550 28
15641 19551 19552 28
15642 19551 19553 28
15643 19551 19554 28
15644 19551 19555 28
15645 19556 19557 28
15646 19556 19558 28
15647 19556 19559 28
15648 19556 19560 28
15649 19561 19562 28
15650 19561 19563 28
15651 19561 19564 28
15652 19561 19565 28
15653 19566 19567 28
15654 19566 19568 28
15655 19566 19569 28
15656 19566 19570 28
15657 19571 19572 28
15658 19571 19573 28
15659 19571 19574 28
15660 19571 19575 28
15661 19576 19577 28
15662 19576 19578 28
15663 19576 19579 28
15664 19576 19580 28
15665 19581 19582 28
15666 19581 19583 28
15667 19581 19584 28
15668 19581 19585 28
15669 19586 19587 28
15670 19586 19588 28
15671 19586 19589 28
15672 19586 19590 28
15673 19591 19592 28
15674 19591 19593 28
15675 19591 19594 28
15676 19591 19595 28
15677 19596 19597 28
15678 19596 19598 28
15679 19596 19599 28
15680 19596 19600 28
15681 19601 19602 28
15682 19601 19603 28
15683 19601 19604 28
15684 19601 19605 28
15685 19606 19607 28
15686 19606 19608 28
15687 19606 19609 28
15688 19606 19610 28
15689 19611 19612 28
15690 19611 19613 28
15691 19611 19614 28
15692 19611 19615 28
15693 19616 19617 28
15694 19616 19618 28
15695 19616 19619 28
15696 19616 19620 28
15697 19621 19622 28
15698 19621 19623 28
15699 19621 19624 28
15700 19621 19625 28
15701 19626 19627 28
15702 19626 19628 28
15703 19626 19629 28
15704 19626 19630 28
15705 19631 19632 28
15706 19631 19633 28
15707 19631 19634 28
15708 19631 19635 28
15709 19636 19637 28
15710 19636 19638 28
15711 19636 19639 28
15712 19636 19640 28
15713 19641 19642 28
15714 19641 19643 28
15715 19641 19644 28
15716 19641 19645 28
15717 19646 19647 28
15718 19646 19648 28
15719 19646 19649 28
15720 19646 19650 28
15721 19651 19652 28
15722 19651 19653 28
15723 19651 19654 28
15724 19651 19655 28
15725 19656 19657 28
15726 19656 19658 28
15727 19656 19659 28
15728 19656 19660 28
15729 19661 19662 28
15730 19661 19663 28
15731 19661 19664 28
15732 19661 19665 28
15733 19666 19667 28
15734 19666 19668 28
15735 19666 19669 28
15736 19666 19670 28
15737 19671 19672 28
15738 19671 19673 28
15739 19671 19674 28
15740 19671 19675 28
15741 19676 19677 28
15742 19676 19678 28
15743 19676 19679 28
15744 19676 19680 28
15745 19681 19682 28
15746 19681 19683 28
15747 19681 19684 28
15748 19681 19685 28
15749 19686 19687 28
15750 19686 19688 28
15751 19686 19689 28
15752 19686 19690 28
15753 19691 19692 28
15754 19691 19693 28
15755 19691 19694 28
15756 19691 19695 28
15757 19696 19697 28
15758 19696 19698 28
15759 19696 19699 28
15760 19696 19700 28
15761 19701 19702 28
15762 19701 19703 28
15763 19701 19704 28
15764 19701 19705 28
15765 19706 19707 28
15766 19706 19708 28
15767 19706 19709 28
15768 19706 19710 28
15769 19711 19712 28
15770 19711 19713 28
15771 19711 19714 28
15772 19711 19715 28
15773 19716 19717 28
15774 19716 19718 28
15775 19716 19719 28
15776 19716 19720 28
15777 19721 19722 28
15778 19721 19723 28
15779 19721 19724 28
15780 19721 19725 28
15781 19726 19727 28
15782 19726 19728 28
15783 19726 19729 28
15784 19726 19730 28
15785 19731 19732 28
15786 19731 19733 28
15787 19731 19734 28
15788 19731 19735 28
15789 19736 19737 28
15790 19736 19738 28
15791 19736 19739 28
15792 19736 19740 28
15793 19741 19742 28
15794 19741 19743 28
15795 19741 19744 28
15796 19741 19745 28
15797 19746 19747 28
15798 19746 19748 28
15799 19746 19749 28
15800 19746 19750 28
15801 19751 19752 28
15802 19751 19753 28
15803 19751 19754 28
15804 19751 19755 28
15805 19756 19757 28
15806 19756 19758 28
15807 19756 19759 28
15808 19756 19760 28
15809 19761 19762 28
15810 19761 19763 28
15811 19761 19764 28
15812 19761 19765 28
15813 19766 19767 28
15814 19766 19768 28
15815 19766 19769 28
15816 19766 19770 28
15817 19771 19772 28
15818 19771 19773 28
15819 19771 19774 28
15820 19771 19775 28
15821 19776 19777 28
15822 19776 19778 28
15823 19776 19779 28
15824 19776 19780 28
15825 19781 19782 28
15826 19781 19783 28
15827 19781 19784 28
15828 19781 19785 28
15829 19786 19787 28
15830 19786 19788 28
15831 19786 19789 28
15832 19786 19790 28
15833 19791 19792 28
15834 19791 19793 28
15835 19791 19794 28
15836 19791 19795 28
15837 19796 19797 28
15838 19796 19798 28
15839 19796 19799 28
15840 19796 19800 28
15841 19801 19802 28
15842 19801 19803 28
15843 19801 19804 28
15844 19801 19805 28
15845 19806 19807 28
15846 19806 19808 28
15847 19806 19809 28
15848 19806 19810 28
15849 19811 19812 28
15850 19811 19813 28
15851 19811 19814 28
15852 19811 19815 28
15853 19816 19817 28
15854 19816 19818 28
15855 19816 19819 28
15856 19816 19820 28
15857 19821 19822 28
15858 19821 19823 28
15859 19821 19824 28
15860 19821 19825 28
15861 19826 19827 28
15862 19826 19828 28
15863 19826 19829 28
15864 19826 19830 28
15865 19831 19832 28
15866 19831 19833 28
15867 19831 19834 28
15868 19831 19835 28
15869 19836 19837 28
15870 19836 19838 28
15871 19836 19839 28
15872 19836 19840 28
15873 19841 19842 28
15874 19841 19843 28
15875 19841 19844 28
15876 19841 19845 28
15877 19846 19847 28
15878 19846 19848 28
15879 19846 19849 28
15880 19846 19850 28
15881 19851 19852 28
15882 19851 19853 28
15883 19851 19854 28
15884 19851 19855 28
15885 19856 19857 28
15886 19856 19858 28
15887 19856 19859 28
15888 19856 19860 28
15889 19861 19862 28
15890 19861 19863 28
15891 19861 19864 28
15892 19861 19865 28
15893 19866 19867 28
15894 19866 19868 28
15895 19866 19869 28
15896 19866 19870 28
15897 19871 19872 28
15898 19871 19873 28
15899 19871 19874 28
15900 19871 19875 28
15901 19876 19877 28
15902 19876 19878 28
15903 19876 19879 28
15904 19876 19880 28
15905 19881 19882 28
15906 19881 19883 28
15907 19881 19884 28
15908 19881 19885 28
15909 19886 19887 28
15910 19886 19888 28
15911 19886 19889 28
15912 19886 19890 28
15913 19891 19892 28
15914 19891 19893 28
15915 19891 19894 28
15916 19891 19895 28
15917 19896 19897 28
15918 19896 19898 28
15919 19896 19899 28
15920 19896 19900 28
15921 19901 19902 28
15922 19901 19903 28
15923 19901 19904 28
15924 19901 19905 28
15925 19906 19907 28
15926 19906 19908 28
15927 19906 19909 28
15928 19906 19910 28
15929 19911 19912 28
15930 19911 19913 28
15931 19911 19914 28
15932 19911 19915 28
15933 19916 19917 28
15934 19916 19918 28
15935 19916 19919 28
15936 19916 19920 28
15937 19921 19922 28
15938 19921 19923 28
15939 19921 19924 28
15940 19921 19925 28
15941 19926 19927 28
15942 19926 19928 28
15943 19926 19929 28
15944 19926 19930 28
15945 19931 19932 28
15946 19931 19933 28
15947 19931 19934 28
15948 19931 19935 28
15949 19936 19937 28
15950 19936 19938 28
15951 19936 19939 28
15952 19936 19940 28
15953 19941 19942 28
15954 19941 19943 28
15955 19941 19944 28
15956 19941 19945 28
15957 19946 19947 28
15958 19946 19948 28
15959 19946 19949 28
15960 19946 19950 28
15961 19951 19952 28
15962 19951 19953 28
15963 19951 19954 28
15964 19951 19955 28
15965 19956 19957 28
15966 19956 19958 28
15967 19956 19959 28
15968 19956 19960 28
15969 19961 19962 28
15970 19961 19963 28
15971 19961 19964 28
15972 19961 19965 28
15973 19966 19967 28
15974 19966 19968 28
15975 19966 19969 28
15976 19966 19970 28
15977 19971 19972 28
15978 19971 19973 28
15979 19971 19974 28
15980 19971 19975 28
15981 19976 19977 28
15982 19976 19978 28
15983 19976 19979 28
15984 19976 19980 28
15985 19981 19982 28
15986 19981 19983 28
15987 19981 19984 28
15988 19981 19985 28
15989 19986 19987 28
15990 19986 19988 28
15991 19986 19989 28
15992 19986 19990 28
15993 19991 19992 28
15994 19991 19993 28
15995 19991 19994 28
15996 19991 19995 28
15997 19996 19997 28
15998 19996 19998 28
15999 19996 19999 28
16000 19996 20000 28
16001 20001 20002 28
16002 20001 20003 28
16003 20001 20004 28
16004 20001 20005 28
16005 20006 20007 28
16006 20006 20008 28
16007 20006 20009 28
16008 20006 20010 28
16009 20011 20012 28
16010 20011 20013 28
16011 20011 20014 28
16012 20011 20015 28
16013 20016 20017 28
16014 20016 20018 28
16015 20016 20019 28
16016 20016 20020 28
16017 20021 20022 28
16018 20021 20023 28
16019 20021 20024 28
16020 20021 20025 28
16021 20026 20027 28
16022 20026 20028 28
16023 20026 20029 28
16024 20026 20030 28
16025 20031 20032 28
16026 20031 20033 28
16027 20031 20034 28
16028 20031 20035 28
16029 20036 20037 28
16030 20036 20038 28
16031 20036 20039 28
16032 20036 20040 28
16033 20041 20042 28
16034 20041 20043 28
16035 20041 20044 28
16036 20041 20045 28
16037 20046 20047 28
16038 20046 20048 28
16039 20046 20049 28
16040 20046 20050 28
16041 20051 20052 28
16042 20051 20053 28
16043 20051 20054 28
16044 20051 20055 28
16045 20056 20057 28
16046 20056 20058 28
16047 20056 20059 28
16048 20056 20060 28
16049 20061 20062 28
16050 20061 20063 28
16051 20061 20064 28
16052 20061 20065 28
16053 20066 20067 28
16054 20066 20068 28
16055 20066 20069 28
16056 20066 20070 28
16057 20071 20072 28
16058 20071 20073 28
16059 20071 20074 28
16060 20071 20075 28
16061 20076 20077 28
16062 20076 20078 28
16063 20076 20079 28
16064 20076 20080 28
16065 20081 20082 28
16066 20081 20083 28
16067 20081 20084 28
16068 20081 20085 28
16069 20086 20087 28
16070 20086 20088 28
16071 20086 20089 28
16072 20086 20090 28
16073 20091 20092 28
16074 20091 20093 28
16075 20091 20094 28
16076 20091 20095 28
16077 20096 20097 28
16078 20096 20098 28
16079 20096 20099 28
16080 20096 20100 28
16081 20101 20102 28
16082 20101 20103 28
16083 20101 20104 28
16084 20101 20105 28
16085 20106 20107 28
16086 20106 20108 28
16087 20106 20109 28
16088 20106 20110 28
16089 20111 20112 28
16090 20111 20113 28
16091 20111 20114 28
16092 20111 20115 28
16093 20116 20117 28
16094 20116 20118 28
16095 20116 20119 28
16096 20116 20120 28
16097 20121 20122 28
16098 20121 20123 28
16099 20121 20124 28
16100 20121 20125 28
16101 20126 20127 28
16102 20126 20128 28
16103 20126 20129 28
16104 20126 20130 28
16105 20131 20132 28
16106 20131 20133 28
16107 20131 20134 28
16108 20131 20135 28
16109 20136 20137 28
16110 20136 20138 28
16111 20136 20139 28
16112 20136 20140 28
16113 20141 20142 28
16114 20141 20143 28
16115 20141 20144 28
16116 20141 20145 28
16117 20146 20147 28
16118 20146 20148 28
16119 20146 20149 28
16120 20146 20150 28
16121 20151 20152 28
16122 20151 20153 28
16123 20151 20154 28
16124 20151 20155 28
16125 20156 20157 28
16126 20156 20158 28
16127 20156 20159 28
16128 20156 20160 28
16129 20161 20162 28
16130 20161 20163 28
16131 20161 20164 28
16132 20161 20165 28
16133 20166 20167 28
16134 20166 20168 28
16135 20166 20169 28
16136 20166 20170 28
16137 20171 20172 28
16138 20171 20173 28
16139 20171 20174 28
16140 20171 20175 28
16141 20176 20177 28
16142 20176 20178 28
16143 20176 20179 28
16144 20176 20180 28
16145 20181 20182 28
16146 20181 20183 28
16147 20181 20184 28
16148 20181 20185 28
16149 20186 20187 28
16150 20186 20188 28
16151 20186 20189 28
16152 20186 20190 28
16153 20191 20192 28
16154 20191 20193 28
16155 20191 20194 28
16156 20191 20195 28
16157 20196 20197 28
16158 20196 20198 28
16159 20196 20199 28
16160 20196 20200 28
16161 20201 20202 28
16162 20201 20203 28
16163 20201 20204 28
16164 20201 20205 28
16165 20206 20207 28
16166 20206 20208 28
16167 20206 20209 28
16168 20206 20210 28
16169 20211 20212 28
16170 20211 20213 28
16171 20211 20214 28
16172 20211 20215 28
16173 20216 20217 28
16174 20216 20218 28
16175 20216 20219 28
16176 20216 20220 28
16177 20221 20222 28
16178 20221 20223 28
16179 20221 20224 28
16180 20221 20225 28
16181 20226 20227 28
16182 20226 20228 28
16183 20226 20229 28
16184 20226 20230 28
16185 20231 20232 28
16186 20231 20233 28
16187 20231 20234 28
16188 20231 20235 28
16189 20236 20237 28
16190 20236 20238 28
16191 20236 20239 28
16192 20236 20240 28
16193 20241 20242 28
16194 20241 20243 28
16195 20241 20244 28
16196 20241 20245 28
16197 20246 20247 28
16198 20246 20248 28
16199 20246 20249 28
16200 20246 20250 28
16201 20251 20252 28
16202 20251 20253 28
16203 20251 20254 28
16204 20251 20255 28
16205 20256 20257 28
16206 20256 20258 28
16207 20256 20259 28
16208 20256 20260 28
16209 20261 20262 28
16210 20261 20263 28
16211 20261 20264 28
16212 20261 20265 28
16213 20266 20267 28
16214 20266 20268 28
16215 20266 20269 28
16216 20266 20270 28
16217 20271 20272 28
16218 20271 20273 28
16219 20271 20274 28
16220 20271 20275 28
16221 20276 20277 28
16222 20276 20278 28
16223 20276 20279 28
16224 20276 20280 28
16225 20281 20282 28
16226 20281 20283 28
16227 20281 20284 28
16228 20281 20285 28
16229 20286 20287 28
16230 20286 20288 28
16231 20286 20289 28
16232 20286 20290 28
16233 20291 20292 28
16234 20291 20293 28
16235 20291 20294 28
16236 20291 20295 28
16237 20296 20297 28
16238 20296 20298 28
16239 20296 20299 28
16240 20296 20300 28
16241 20301 20302 28
16242 20301 20303 28
16243 20301 20304 28
16244 20301 20305 28
16245 20306 20307 28
16246 20306 20308 28
16247 20306 20309 28
16248 20306 20310 28
16249 20311 20312 28
16250 20311 20313 28
16251 20311 20314 28
16252 20311 20315 28
16253 20316 20317 28
16254 20316 20318 28
16255 20316 20319 28
16256 20316 20320 28
16257 20321 20322 28
16258 20321 20323 28
16259 20321 20324 28
16260 20321 20325 28
16261 20326 20327 28
16262 20326 20328 28
16263 20326 20329 28
16264 20326 20330 28
16265 20331 20332 28
16266 20331 20333 28
16267 20331 20334 28
16268 20331 20335 28
16269 20336 20337 28
16270 20336 20338 28
16271 20336 20339 28
16272 20336 20340 28
16273 20341 20342 28
16274 20341 20343 28
16275 20341 20344 28
16276 20341 20345 28
16277 20346 20347 28
16278 20346 20348 28
16279 20346 20349 28
16280 20346 20350 28
16281 20351 20352 28
16282 20351 20353 28
16283 20351 20354 28
16284 20351 20355 28
16285 20356 20357 28
16286 20356 20358 28
16287 20356 20359 28
16288 20356 20360 28
16289 20361 20362 28
16290 20361 20363 28
16291 20361 20364 28
16292 20361 20365 28
16293 20366 20367 28
16294 20366 20368 28
16295 20366 20369 28
16296 20366 20370 28
16297 20371 20372 28
16298 20371 20373 28
16299 20371 20374 28
16300 20371 20375 28
16301 20376 20377 28
16302 20376 20378 28
16303 20376 20379 28
16304 20376 20380 28
16305 20381 20382 28
16306 20381 20383 28
16307 20381 20384 28
16308 20381 20385 28
16309 20386 20387 28
16310 20386 20388 28
16311 20386 20389 28
16312 20386 20390 28
16313 20391 20392 28
16314 20391 20393 28
16315 20391 20394 28
16316 20391 20395 28
16317 20396 20397 28
16318 20396 20398 28
16319 20396 20399 28
16320 20396 20400 28
16321 20401 20402 28
16322 20401 20403 28
16323 20401 20404 28
16324 20401 20405 28
16325 20406 20407 28
16326 20406 20408 28
16327 20406 20409 28
16328 20406 20410 28
16329 20411 20412 28
16330 20411 20413 28
16331 20411 20414 28
16332 20411 20415 28
16333 20416 20417 28
16334 20416 20418 28
16335 20416 20419 28
16336 20416 20420 28
16337 20421 20422 28
16338 20421 20423 28
16339 20421 20424 28
16340 20421 20425 28
16341 20426 20427 28
16342 20426 20428 28
16343 20426 20429 28
16344 20426 20430 28
16345 20431 20432 28
16346 20431 20433 28
16347 20431 20434 28
16348 20431 20435 28
16349 20436 20437 28
16350 20436 20438 28
16351 20436 20439 28
16352 20436 20440 28
16353 20441 20442 28
16354 20441 20443 28
16355 20441 20444 28
16356 20441 20445 28
16357 20446 20447 28
16358 20446 20448 28
16359 20446 20449 28
16360 20446 20450 28
16361 20451 20452 28
16362 20451 20453 28
16363 20451 20454 28
16364 20451 20455 28
16365 20456 20457 28
16366 20456 20458 28
16367 20456 20459 28
16368 20456 20460 28
16369 20461 20462 28
16370 20461 20463 28
16371 20461 20464 28
16372 20461 20465 28
16373 20466 20467 28
16374 20466 20468 28
16375 20466 20469 28
16376 20466 20470 28
16377 20471 20472 28
16378 20471 20473 28
16379 20471 20474 28
16380 20471 20475 28
16381 20476 20477 28
16382 20476 20478 28
16383 20476 20479 28
16384 20476 20480 28
16385 20481 20482 28
16386 20481 20483 28
16387 20481 20484 28
16388 20481 20485 28
16389 20486 20487 28
16390 20486 20488 28
16391 20486 20489 28
16392 20486 20490 28
16393 20491 20492 28
16394 20491 20493 28
16395 20491 20494 28
16396 20491 20495 28
16397 20496 20497 28
16398 20496 20498 28
16399 20496 20499 28
16400 20496 20500 28
16401 20501 20502 28
16402 20501 20503 28
16403 20501 20504 28
16404 20501 20505 28
16405 20506 20507 28
16406 20506 20508 28
16407 20506 20509 28
16408 20506 20510 28
16409 20511 20512 28
16410 20511 20513 28
16411 20511 20514 28
16412 20511 20515 28
16413 20516 20517 28
16414 20516 20518 28
16415 20516 20519 28
16416 20516 20520 28
16417 20521 20522 28
16418 20521 20523 28
16419 20521 20524 28
16420 20521 20525 28
16421 20526 20527 28
16422 20526 20528 28
16423 20526 20529 28
16424 20526 20530 28
16425 20531 20532 28
16426 20531 20533 28
16427 20531 20534 28
16428 20531 20535 28
16429 20536 20537 28
16430 20536 20538 28
16431 20536 20539 28
16432 20536 20540 28
16433 20541 20542 28
16434 20541 20543 28
16435 20541 20544 28
16436 20541 20545 28
16437 20546 20547 28
16438 20546 20548 28
16439 20546 20549 28
16440 20546 20550 28
16441 20551 20552 28
16442 20551 20553 28
16443 20551 20554 28
16444 20551 20555 28
16445 20556 20557 28
16446 20556 20558 28
16447 20556 20559 28
16448 20556 20560 28
16449 20561 20562 28
16450 20561 20563 28
16451 20561 20564 28
16452 20561 20565 28
16453 20566 20567 28
16454 20566 20568 28
16455 20566 20569 28
16456 20566 20570 28
16457 20571 20572 28
16458 20571 20573 28
16459 20571 20574 28
16460 20571 20575 28
16461 20576 20577 28
16462 20576 20578 28
16463 20576 20579 28
16464 20576 20580 28
16465 20581 20582 28
16466 20581 20583 28
16467 20581 20584 28
16468 20581 20585 28
16469 20586 20587 28
16470 20586 20588 28
16471 20586 20589 28
16472 20586 20590 28
16473 20591 20592 28
16474 20591 20593 28
16475 20591 20594 28
16476 20591 20595 28
16477 20596 20597 28
16478 20596 20598 28
16479 20596 20599 28
16480 20596 20600 28
16481 20601 20602 28
16482 20601 20603 28
16483 20601 20604 28
16484 20601 20605 28
16485 20606 20607 28
16486 20606 20608 28
16487 20606 20609 28
16488 20606 20610 28
16489 20611 20612 28
16490 20611 20613 28
16491 20611 20614 28
16492 20611 20615 28
16493 20616 20617 28
16494 20616 20618 28
16495 20616 20619 28
16496 20616 20620 28
16497 20621 20622 28
16498 20621 20623 28
16499 20621 20624 28
16500 20621 20625 28
16501 20626 20627 28
16502 20626 20628 28
16503 20626 20629 28
16504 20626 20630 28
16505 20631 20632 28
16506 20631 20633 28
16507 20631 20634 28
16508 20631 20635 28
16509 20636 20637 28
16510 20636 20638 28
16511 20636 20639 28
16512 20636 20640 28
16513 20641 20642 28
16514 20641 20643 28
16515 20641 20644 28
16516 20641 20645 28
16517 20646 20647 28
16518 20646 20648 28
16519 20646 20649 28
16520 20646 20650 28
16521 20651 20652 28
16522 20651 20653 28
16523 20651 20654 28
16524 20651 20655 28
16525 20656 20657 28
16526 20656 20658 28
16527 20656 20659 28
16528 20656 20660 28
16529 20661 20662 28
16530 20661 20663 28
16531 20661 20664 28
16532 20661 20665 28
16533 20666 20667 28
16534 20666 20668 28
16535 20666 20669 28
16536 20666 20670 28
16537 20671 20672 28
16538 20671 20673 28
16539 20671 20674 28
16540 20671 20675 28
16541 20676 20677 28
16542 20676 20678 28
16543 20676 20679 28
16544 20676 20680 28
16545 20681 20682 28
16546 20681 20683 28
16547 20681 20684 28
16548 20681 20685 28
16549 20686 20687 28
16550 20686 20688 28
16551 20686 20689 28
16552 20686 20690 28
16553 20691 20692 28
16554 20691 20693 28
16555 20691 20694 28
16556 20691 20695 28
16557 20696 20697 28
16558 20696 20698 28
16559 20696 20699 28
16560 20696 20700 28
16561 20701 20702 28
16562 20701 20703 28
16563 20701 20704 28
16564 20701 20705 28
16565 20706 20707 28
16566 20706 20708 28
16567 20706 20709 28
16568 20706 20710 28
16569 20711 20712 28
16570 20711 20713 28
16571 20711 20714 28
16572 20711 20715 28
16573 20716 20717 28
16574 20716 20718 28
16575 20716 20719 28
16576 20716 20720 28
16577 20721 20722 28
16578 20721 20723 28
16579 20721 20724 28
16580 20721 20725 28
16581 20726 20727 28
16582 20726 20728 28
16583 20726 20729 28
16584 20726 20730 28
16585 20731 20732 28
16586 20731 20733 28
16587 20731 20734 28
16588 20731 20735 28
16589 20736 20737 28
16590 20736 20738 28
16591 20736 20739 28
16592 20736 20740 28
16593 20741 20742 28
16594 20741 20743 28
16595 20741 20744 28
16596 20741 20745 28
16597 20746 20747 28
16598 20746 20748 28
16599 20746 20749 28
16600 20746 20750 28
16601 20751 20752 28
16602 20751 20753 28
16603 20751 20754 28
16604 20751 20755 28
16605 20756 20757 28
16606 20756 20758 28
16607 20756 20759 28
16608 20756 20760 28
16609 20761 20762 28
16610 20761 20763 28
16611 20761 20764 28
16612 20761 20765 28
16613 20766 20767 28
16614 20766 20768 28
16615 20766 20769 28
16616 20766 20770 28
16617 20771 20772 28
16618 20771 20773 28
16619 20771 20774 28
16620 20771 20775 28
16621 20776 20777 28
16622 20776 20778 28
16623 20776 20779 28
16624 20776 20780 28
16625 20781 20782 28
16626 20781 20783 28
16627 20781 20784 28
16628 20781 20785 28
16629 20786 20787 28
16630 20786 20788 28
16631 20786 20789 28
16632 20786 20790 28
16633 20791 20792 28
16634 20791 20793 28
16635 20791 20794 28
16636 20791 20795 28
16637 20796 20797 28
16638 20796 20798 28
16639 20796 20799 28
16640 20796 20800 28
16641 20801 20802 28
16642 20801 20803 28
16643 20801 20804 28
16644 20801 20805 28
16645 20806 20807 28
16646 20806 20808 28
16647 20806 20809 28
16648 20806 20810 28
16649 20811 20812 28
16650 20811 20813 28
16651 20811 20814 28
16652 20811 20815 28
16653 20816 20817 28
16654 20816 20818 28
16655 20816 20819 28
16656 20816 20820 28
16657 20821 20822 28
16658 20821 20823 28
16659 20821 20824 28
16660 20821 20825 28
16661 20826 20827 28
16662 20826 20828 28
16663 20826 20829 28
16664 20826 20830 28
16665 20831 20832 28
16666 20831 20833 28
16667 20831 20834 28
16668 20831 20835 28
16669 20836 20837 28
16670 20836 20838 28
16671 20836 20839 28
16672 20836 20840 28
16673 20841 20842 28
16674 20841 20843 28
16675 20841 20844 28
16676 20841 20845 28
16677 20846 20847 28
16678 20846 20848 28
16679 20846 20849 28
16680 20846 20850 28
16681 20851 20852 28
16682 20851 20853 28
16683 20851 20854 28
16684 20851 20855 28
16685 20856 20857 28
16686 20856 20858 28
16687 20856 20859 28
16688 20856 20860 28
16689 20861 20862 28
16690 20861 20863 28
16691 20861 20864 28
16692 20861 20865 28
16693 20866 20867 28
16694 20866 20868 28
16695 20866 20869 28
16696 20866 20870 28
16697 20871 20872 28
16698 20871 20873 28
16699 20871 20874 28
16700 20871 20875 28
16701 20876 20877 28
16702 20876 20878 28
16703 20876 20879 28
16704 20876 20880 28
16705 20881 20882 28
16706 20881 20883 28
16707 20881 20884 28
16708 20881 20885 28
16709 20886 20887 28
16710 20886 20888 28
16711 20886 20889 28
16712 20886 20890 28
16713 20891 20892 28
16714 20891 20893 28
16715 20891 20894 28
16716 20891 20895 28
16717 20896 20897 28
16718 20896 20898 28
16719 20896 20899 28
16720 20896 20900 28
16721 20901 20902 28
16722 20901 20903 28
16723 20901 20904 28
16724 20901 20905 28
16725 20906 20907 28
16726 20906 20908 28
16727 20906 20909 28
16728 20906 20910 28
16729 20911 20912 28
16730 20911 20913 28
16731 20911 20914 28
16732 20911 20915 28
16733 20916 20917 28
16734 20916 20918 28
16735 20916 20919 28
16736 20916 20920 28
16737 20921 20922 28
16738 20921 20923 28
16739 20921 20924 28
16740 20921 20925 28
16741 20926 20927 28
16742 20926 20928 28
16743 20926 20929 28
16744 20926 20930 28
16745 20931 20932 28
16746 20931 20933 28
16747 20931 20934 28
16748 20931 20935 28
16749 20936 20937 28
16750 20936 20938 28
16751 20936 20939 28
16752 20936 20940 28
16753 20941 20942 28
16754 20941 20943 28
16755 20941 20944 28
16756 20941 20945 28
16757 20946 20947 28
16758 20946 20948 28
16759 20946 20949 28
16760 20946 20950 28
16761 20951 20952 28
16762 20951 20953 28
16763 20951 20954 28
16764 20951 20955 28
16765 20956 20957 28
16766 20956 20958 28
16767 20956 20959 28
16768 20956 20960 28
16769 20961 20962 28
16770 20961 20963 28
16771 20961 20964 28
16772 20961 20965 28
16773 20966 20967 28
16774 20966 20968 28
16775 20966 20969 28
16776 20966 20970 28
16777 20971 20972 28
16778 20971 20973 28
16779 20971 20974 28
16780 20971 20975 28
16781 20976 20977 28
16782 20976 20978 28
16783 20976 20979 28
16784 20976 20980 28
16785 20981 20982 28
16786 20981 20983 28
16787 20981 20984 28
16788 20981 20985 28
16789 20986 20987 28
16790 20986 20988 28
16791 20986 20989 28
16792 20986 20990 28
16793 20991 20992 28
16794 20991 20993 28
16795 20991 20994 28
16796 20991 20995 28
16797 20996 20997 28
16798 20996 20998 28
16799 20996 20999 28
16800 20996 21000 28
16801 21001 21002 28
16802 21001 21003 28
16803 21001 21004 28
16804 21001 21005 28
16805 21006 21007 28
16806 21006 21008 28
16807 21006 21009 28
16808 21006 21010 28
16809 21011 21012 28
16810 21011 21013 28
16811 21011 21014 28
16812 21011 21015 28
16813 21016 21017 28
16814 21016 21018 28
16815 21016 21019 28
16816 21016 21020 28
16817 21021 21022 28
16818 21021 21023 28
16819 21021 21024 28
16820 21021 21025 28
16821 21026 21027 28
16822 21026 21028 28
16823 21026 21029 28
16824 21026 21030 28
16825 21031 21032 28
16826 21031 21033 28
16827 21031 21034 28
16828 21031 21035 28
16829 21036 21037 28
16830 21036 21038 28
16831 21036 21039 28
16832 21036 21040 28
16833 21041 21042 28
16834 21041 21043 28
16835 21041 21044 28
16836 21041 21045 28
16837 21046 21047 28
16838 21046 21048 28
16839 21046 21049 28
16840 21046 21050 28
16841 21051 21052 28
16842 21051 21053 28
16843 21051 21054 28
16844 21051 21055 28
16845 21056 21057 28
16846 21056 21058 28
16847 21056 21059 28
16848 21056 21060 28
16849 21061 21062 28
16850 21061 21063 28
16851 21061 21064 28
16852 21061 21065 28
16853 21066 21067 28
16854 21066 21068 28
16855 21066 21069 28
16856 21066 21070 28
16857 21071 21072 28
16858 21071 21073 28
16859 21071 21074 28
16860 21071 21075 28
16861 21076 21077 28
16862 21076 21078 28
16863 21076 21079 28
16864 21076 21080 28
16865 21081 21082 28
16866 21081 21083 28
16867 21081 21084 28
16868 21081 21085 28
16869 21086 21087 28
16870 21086 21088 28
16871 21086 21089 28
16872 21086 21090 28
16873 21091 21092 28
16874 21091 21093 28
16875 21091 21094 28
16876 21091 21095 28
16877 21096 21097 28
16878 21096 21098 28
16879 21096 21099 28
16880 21096 21100 28
16881 21101 21102 28
16882 21101 21103 28
16883 21101 21104 28
16884 21101 21105 28
16885 21106 21107 28
16886 21106 21108 28
16887 21106 21109 28
16888 21106 21110 28
16889 21111 21112 28
16890 21111 21113 28
16891 21111 21114 28
16892 21111 21115 28
16893 21116 21117 28
16894 21116 21118 28
16895 21116 21119 28
16896 21116 21120 28
16897 21121 21122 28
16898 21121 21123 28
16899 21121 21124 28
16900 21121 21125 28
16901 21126 21127 28
16902 21126 21128 28
16903 21126 21129 28
16904 21126 21130 28
16905 21131 21132 28
16906 21131 21133 28
16907 21131 21134 28
16908 21131 21135 28
16909 21136 21137 28
16910 21136 21138 28
16911 21136 21139 28
16912 21136 21140 28
16913 21141 21142 28
16914 21141 21143 28
16915 21141 21144 28
16916 21141 21145 28
16917 21146 21147 28
16918 21146 21148 28
16919 21146 21149 28
16920 21146 21150 28
16921 21151 21152 28
16922 21151 21153 28
16923 21151 21154 28
16924 21151 21155 28
16925 21156 21157 28
16926 21156 21158 28
16927 21156 21159 28
16928 21156 21160 28
16929 21161 21162 28
16930 21161 21163 28
16931 21161 21164 28
16932 21161 21165 28
16933 21166 21167 28
16934 21166 21168 28
16935 21166 21169 28
16936 21166 21170 28
16937 21171 21172 28
16938 21171 21173 28
16939 21171 21174 28
16940 21171 21175 28
16941 21176 21177 28
16942 21176 21178 28
16943 21176 21179 28
16944 21176 21180 28
16945 21181 21182 28
16946 21181 21183 28
16947 21181 21184 28
16948 21181 21185 28
16949 21186 21187 28
16950 21186 21188 28
16951 21186 21189 28
16952 21186 21190 28
16953 21191 21192 28
16954 21191 21193 28
16955 21191 21194 28
16956 21191 21195 28
16957 21196 21197 28
16958 21196 21198 28
16959 21196 21199 28
16960 21196 21200 28
16961 21201 21202 28
16962 21201 21203 28
16963 21201 21204 28
16964 21201 21205 28
16965 21206 21207 28
16966 21206 21208 28
16967 21206 21209 28
16968 21206 21210 28
16969 21211 21212 28
16970 21211 21213 28
16971 21211 21214 28
16972 21211 21215 28
16973 21216 21217 28
16974 21216 21218 28
16975 21216 21219 28
16976 21216 21220 28
16977 21221 21222 28
16978 21221 21223 28
16979 21221 21224 28
16980 21221 21225 28
16981 21226 21227 28
16982 21226 21228 28
16983 21226 21229 28
16984 21226 21230 28
16985 21231 21232 28
16986 21231 21233 28
16987 21231 21234 28
16988 21231 21235 28
16989 21236 21237 28
16990 21236 21238 28
16991 21236 21239 28
16992 21236 21240 28
16993 21241 21242 28
16994 21241 21243 28
16995 21241 21244 28
16996 21241 21245 28
16997 21246 21247 28
16998 21246 21248 28
16999 21246 21249 28
17000 21246 21250 28
17001 21251 21252 28
17002 21251 21253 28
17003 21251 21254 28
17004 21251 21255 28
17005 21256 21257 28
17006 21256 21258 28
17007 21256 21259 28
17008 21256 21260 28
17009 21261 21262 28
17010 21261 21263 28
17011 21261 21264 28
17012 21261 21265 28
17013 21266 21267 28
17014 21266 21268 28
17015 21266 21269 28
17016 21266 21270 28
17017 21271 21272 28
17018 21271 21273 28
17019 21271 21274 28
17020 21271 21275 28
17021 21276 21277 28
17022 21276 21278 28
17023 21276 21279 28
17024 21276 21280 28
17025 21281 21282 28
17026 21281 21283 28
17027 21281 21284 28
17028 21281 21285 28
17029 21286 21287 28
17030 21286 21288 28
17031 21286 21289 28
17032 21286 21290 28
17033 21291 21292 28
17034 21291 21293 28
17035 21291 21294 28
17036 21291 21295 28
17037 21296 21297 28
17038 21296 21298 28
17039 21296 21299 28
17040 21296 21300 28
17041 21301 21302 28
17042 21301 21303 28
17043 21301 21304 28
17044 21301 21305 28
17045 21306 21307 28
17046 21306 21308 28
17047 21306 21309 28
17048 21306 21310 28
17049 21311 21312 28
17050 21311 21313 28
17051 21311 21314 28
17052 21311 21315 28
17053 21316 21317 28
17054 21316 21318 28
17055 21316 21319 28
17056 21316 21320 28
17057 21321 21322 28
17058 21321 21323 28
17059 21321 21324 28
17060 21321 21325 28
17061 21326 21327 28
17062 21326 21328 28
17063 21326 21329 28
17064 21326 21330 28
17065 21331 21332 28
17066 21331 21333 28
17067 21331 21334 28
17068 21331 21335 28
17069 21336 21337 28
17070 21336 21338 28
17071 21336 21339 28
17072 21336 21340 28
17073 21341 21342 28
17074 21341 21343 28
17075 21341 21344 28
17076 21341 21345 28
17077 21346 21347 28
17078 21346 21348 28
17079 21346 21349 28
17080 21346 21350 28
17081 21351 21352 28
17082 21351 21353 28
17083 21351 21354 28
17084 21351 21355 28
17085 21356 21357 28
17086 21356 21358 28
17087 21356 21359 28
17088 21356 21360 28
17089 21361 21362 28
17090 21361 21363 28
17091 21361 21364 28
17092 21361 21365 28
17093 21366 21367 28
17094 21366 21368 28
17095 21366 21369 28
17096 21366 21370 28
17097 21371 21372 28
17098 21371 21373 28
17099 21371 21374 28
17100 21371 21375 28
17101 21376 21377 28
17102 21376 21378 28
17103 21376 21379 28
17104 21376 21380 28
17105 21381 21382 28
17106 21381 21383 28
17107 21381 21384 28
17108 21381 21385 28
17109 21386 21387 28
17110 21386 21388 28
17111 21386 21389 28
17112 21386 21390 28
17113 21391 21392 28
17114 21391 21393 28
17115 21391 21394 28
17116 21391 21395 28
17117 21396 21397 28
17118 21396 21398 28
17119 21396 21399 28
17120 21396 21400 28
17121 21401 21402 28
17122 21401 21403 28
17123 21401 21404 28
17124 21401 21405 28
17125 21406 21407 28
17126 21406 21408 28
17127 21406 21409 28
17128 21406 21410 28
17129 21411 21412 28
17130 21411 21413 28
17131 21411 21414 28
17132 21411 21415 28
17133 21416 21417 28
17134 21416 21418 28
17135 21416 21419 28
17136 21416 21420 28
17137 21421 21422 28
17138 21421 21423 28
17139 21421 21424 28
17140 21421 21425 28
17141 21426 21427 28
17142 21426 21428 28
17143 21426 21429 28
17144 21426 21430 28
17145 21431 21432 28
17146 21431 21433 28
17147 21431 21434 28
17148 21431 21435 28
17149 21436 21437 28
17150 21436 21438 28
17151 21436 21439 28
17152 21436 21440 28
17153 21441 21442 28
17154 21441 21443 28
17155 21441 21444 28
17156 21441 21445 28
17157 21446 21447 28
17158 21446 21448 28
17159 21446 21449 28
17160 21446 21450 28
17161 21451 21452 28
17162 21451 21453 28
17163 21451 21454 28
17164 21451 21455 28
17165 21456 21457 28
17166 21456 21458 28
17167 21456 21459 28
17168 21456 21460 28
17169 21461 21462 28
17170 21461 21463 28
17171 21461 21464 28
17172 21461 21465 28
17173 21466 21467 28
17174 21466 21468 28
17175 21466 21469 28
17176 21466 21470 28
17177 21471 21472 28
17178 21471 21473 28
17179 21471 21474 28
17180 21471 21475 28
17181 21476 21477 28
17182 21476 21478 28
17183 21476 21479 28
17184 21476 21480 28
17185 21481 21482 28
17186 21481 21483 28
17187 21481 21484 28
17188 21481 21485 28
17189 21486 21487 28
17190 21486 21488 28
17191 21486 21489 28
17192 21486 21490 28
17193 21491 21492 28
17194 21491 21493 28
17195 21491 21494 28
17196 21491 21495 28
17197 21496 21497 28
17198 21496 21498 28
17199 21496 21499 28
17200 21496 21500 28
17201 21501 21502 28
17202 21501 21503 28
17203 21501 21504 28
17204 21501 21505 28
17205 21506 21507 28
17206 21506 21508 28
17207 21506 21509 28
17208 21506 21510 28
17209 21511 21512 28
17210 21511 21513 28
17211 21511 21514 28
17212 21511 21515 28
17213 21516 21517 28
17214 21516 21518 28
17215 21516 21519 28
17216 21516 21520 28
17217 21521 21522 28
17218 21521 21523 28
17219 21521 21524 28
17220 21521 21525 28
17221 21526 21527 28
17222 21526 21528 28
17223 21526 21529 28
17224 21526 21530 28
17225 21531 21532 28
17226 21531 21533 28
17227 21531 21534 28
17228 21531 21535 28
17229 21536 21537 28
17230 21536 21538 28
17231 21536 21539 28
17232 21536 21540 28
17233 21541 21542 28
17234 21541 21543 28
17235 21541 21544 28
17236 21541 21545 28
17237 21546 21547 28
17238 21546 21548 28
17239 21546 21549 28
17240 21546 21550 28
17241 21551 21552 28
17242 21551 21553 28
17243 21551 21554 28
17244 21551 21555 28
17245 21556 21557 28
17246 21556 21558 28
17247 21556 21559 28
17248 21556 21560 28
17249 21561 21562 28
17250 21561 21563 28
17251 21561 21564 28
17252 21561 21565 28
17253 21566 21567 28
17254 21566 21568 28
17255 21566 21569 28
17256 21566 21570 28
17257 21571 21572 28
17258 21571 21573 28
17259 21571 21574 28
17260 21571 21575 28
17261 21576 21577 28
17262 21576 21578 28
17263 21576 21579 28
17264 21576 21580 28
17265 21581 21582 28
17266 21581 21583 28
17267 21581 21584 28
17268 21581 21585 28
17269 21586 21587 28
17270 21586 21588 28
17271 21586 21589 28
17272 21586 21590 28
17273 21591 21592 28
17274 21591 21593 28
17275 21591 21594 28
17276 21591 21595 28
17277 21596 21597 28
17278 21596 21598 28
17279 21596 21599 28
17280 21596 21600 28
17281 21601 21602 28
17282 21601 21603 28
17283 21601 21604 28
17284 21601 21605 28
17285 21606 21607 28
17286 21606 21608 28
17287 21606 21609 28
17288 21606 21610 28
17289 21611 21612 28
17290 21611 21613 28
17291 21611 21614 28
17292 21611 21615 28
17293 21616 21617 28
17294 21616 21618 28
17295 21616 21619 28
17296 21616 21620 28
17297 21621 21622 28
17298 21621 21623 28
17299 21621 21624 28
17300 21621 21625 28
17301 21626 21627 28
17302 21626 21628 28
17303 21626 21629 28
17304 21626 21630 28
17305 21631 21632 28
17306 21631 21633 28
17307 21631 21634 28
17308 21631 21635 28
17309 21636 21637 28
17310 21636 21638 28
17311 21636 21639 28
17312 21636 21640 28
17313 21641 21642 28
17314 21641 21643 28
17315 21641 21644 28
17316 21641 21645 28
17317 21646 21647 28
17318 21646 21648 28
17319 21646 21649 28
17320 21646 21650 28
17321 21651 21652 28
17322 21651 21653 28
17323 21651 21654 28
17324 21651 21655 28
17325 21656 21657 28
17326 21656 21658 28
17327 21656 21659 28
17328 21656 21660 28
17329 21661 21662 28
17330 21661 21663 28
17331 21661 21664 28
17332 21661 21665 28
17333 21666 21667 28
17334 21666 21668 28
17335 21666 21669 28
17336 21666 21670 28
17337 21671 21672 28
17338 21671 21673 28
17339 21671 21674 28
17340 21671 21675 28
17341 21676 21677 28
17342 21676 21678 28
17343 21676 21679 28
17344 21676 21680 28
17345 21681 21682 28
17346 21681 21683 28
17347 21681 21684 28
17348 21681 21685 28
17349 21686 21687 28
17350 21686 21688 28
17351 21686 21689 28
17352 21686 21690 28
17353 21691 21692 28
17354 21691 21693 28
17355 21691 21694 28
17356 21691 21695 28
17357 21696 21697 28
17358 21696 21698 28
17359 21696 21699 28
17360 21696 21700 28
17361 21701 21702 28
17362 21701 21703 28
17363 21701 21704 28
17364 21701 21705 28
17365 21706 21707 28
17366 21706 21708 28
17367 21706 21709 28
17368 21706 21710 28
17369 21711 21712 28
17370 21711 21713 28
17371 21711 21714 28
17372 21711 21715 28
17373 21716 21717 28
17374 21716 21718 28
17375 21716 21719 28
17376 21716 21720 28
17377 21721 21722 28
17378 21721 21723 28
17379 21721 21724 28
17380 21721 21725 28
17381 21726 21727 28
17382 21726 21728 28
17383 21726 21729 28
17384 21726 21730 28
17385 21731 21732 28
17386 21731 21733 28
17387 21731 21734 28
17388 21731 21735 28
17389 21736 21737 28
17390 21736 21738 28
17391 21736 21739 28
17392 21736 21740 28
17393 21741 21742 28
17394 21741 21743 28
17395 21741 21744 28
17396 21741 21745 28
17397 21746 21747 28
17398 21746 21748 28
17399 21746 21749 28
17400 21746 21750 28
17401 21751 21752 28
17402 21751 21753 28
17403 21751 21754 28
17404 21751 21755 28
17405 21756 21757 28
17406 21756 21758 28
17407 21756 21759 28
17408 21756 21760 28
17409 21761 21762 28
17410 21761 21763 28
17411 21761 21764 28
17412 21761 21765 28
17413 21766 21767 28
17414 21766 21768 28
17415 21766 21769 28
17416 21766 21770 28
17417 21771 21772 28
17418 21771 21773 28
17419 21771 21774 28
17420 21771 21775 28
17421 21776 21777 28
17422 21776 21778 28
17423 21776 21779 28
17424 21776 21780 28
17425 21781 21782 28
17426 21781 21783 28
17427 21781 21784 28
17428 21781 21785 28
17429 21786 21787 28
17430 21786 21788 28
17431 21786 21789 28
17432 21786 21790 28
17433 21791 21792 28
17434 21791 21793 28
17435 21791 21794 28
17436 21791 21795 28
17437 21796 21797 28
17438 21796 21798 28
17439 21796 21799 28
17440 21796 21800 28
17441 21801 21802 28
17442 21801 21803 28
17443 21801 21804 28
17444 21801 21805 28
17445 21806 21807 28
17446 21806 21808 28
17447 21806 21809 28
17448 21806 21810 28
17449 21811 21812 28
17450 21811 21813 28
17451 21811 21814 28
17452 21811 21815 28
17453 21816 21817 28
17454 21816 21818 28
17455 21816 21819 28
17456 21816 21820 28
17457 21821 21822 28
17458 21821 21823 28
17459 21821 21824 28
17460 21821 21825 28
17461 21826 21827 28
17462 21826 21828 28
17463 21826 21829 28
17464 21826 21830 28
17465 21831 21832 28
17466 21831 21833 28
17467 21831 21834 28
17468 21831 21835 28
17469 21836 21837 28
17470 21836 21838 28
17471 21836 21839 28
17472 21836 21840 28
17473 21841 21842 28
17474 21841 21843 28
17475 21841 21844 28
17476 21841 21845 28
17477 21846 21847 28
17478 21846 21848 28
17479 21846 21849 28
17480 21846 21850 28
17481 21851 21852 28
17482 21851 21853 28
17483 21851 21854 28
17484 21851 21855 28
17485 21856 21857 28
17486 21856 21858 28
17487 21856 21859 28
17488 21856 21860 28
17489 21861 21862 28
17490 21861 21863 28
17491 21861 21864 28
17492 21861 21865 28
17493 21866 21867 28
17494 21866 21868 28
17495 21866 21869 28
17496 21866 21870 28
17497 21871 21872 28
17498 21871 21873 28
17499 21871 21874 28
17500 21871 21875 28
17501 21876 21877 28
17502 21876 21878 28
17503 21876 21879 28
17504 21876 21880 28
17505 21881 21882 28
17506 21881 21883 28
17507 21881 21884 28
17508 21881 21885 28
17509 21886 21887 28
17510 21886 21888 28
17511 21886 21889 28
17512 21886 21890 28
17513 21891 21892 28
17514 21891 21893 28
17515 21891 21894 28
17516 21891 21895 28
17517 21896 21897 28
17518 21896 21898 28
17519 21896 21899 28
17520 21896 21900 28
17521 21901 21902 28
17522 21901 21903 28
17523 21901 21904 28
17524 21901 21905 28
17525 21906 21907 28
17526 21906 21908 28
17527 21906 21909 28
17528 21906 21910 28
17529 21911 21912 28
17530 21911 21913 28
17531 21911 21914 28
17532 21911 21915 28
17533 21916 21917 28
17534 21916 21918 28
17535 21916 21919 28
17536 21916 21920 28
17537 21921 21922 28
17538 21921 21923 28
17539 21921 21924 28
17540 21921 21925 28
17541 21926 21927 28
17542 21926 21928 28
17543 21926 21929 28
17544 21926 21930 28
17545 21931 21932 28
17546 21931 21933 28
17547 21931 21934 28
17548 21931 21935 28
17549 21936 21937 28
17550 21936 21938 28
17551 21936 21939 28
17552 21936 21940 28
17553 21941 21942 28
17554 21941 21943 28
17555 21941 21944 28
17556 21941 21945 28
17557 21946 21947 28
17558 21946 21948 28
17559 21946 21949 28
17560 21946 21950 28
17561 21951 21952 28
17562 21951 21953 28
17563 21951 21954 28
17564 21951 21955 28
17565 21956 21957 28
17566 21956 21958 28
17567 21956 21959 28
17568 21956 21960 28
17569 21961 21962 28
17570 21961 21963 28
17571 21961 21964 28
17572 21961 21965 28
17573 21966 21967 28
17574 21966 21968 28
17575 21966 21969 28
17576 21966 21970 28
17577 21971 21972 28
17578 21971 21973 28
17579 21971 21974 28
17580 21971 21975 28
17581 21976 21977 28
17582 21976 21978 28
17583 21976 21979 28
17584 21976 21980 28
17585 21981 21982 28
17586 21981 21983 28
17587 21981 21984 28
17588 21981 21985 28
17589 21986 21987 28
17590 21986 21988 28
17591 21986 21989 28
17592 21986 21990 28
17593 21991 21992 28
17594 21991 21993 28
17595 21991 21994 28
17596 21991 21995 28
17597 21996 21997 28
17598 21996 21998 28
17599 21996 21999 28
17600 21996 22000 28
17601 22001 22002 28
17602 22001 22003 28
17603 22001 22004 28
17604 22001 22005 28
17605 22006 22007 28
17606 22006 22008 28
17607 22006 22009 28
17608 22006 22010 28
17609 22011 22012 28
17610 22011 22013 28
17611 22011 22014 28
17612 22011 22015 28
17613 22016 22017 28
17614 22016 22018 28
17615 22016 22019 28
17616 22016 22020 28
17617 22021 22022 28
17618 22021 22023 28
17619 22021 22024 28
17620 22021 22025 28
17621 22026 22027 28
17622 22026 22028 28
17623 22026 22029 28
17624 22026 22030 28
17625 22031 22032 28
17626 22031 22033 28
17627 22031 22034 28
17628 22031 22035 28
17629 22036 22037 28
17630 22036 22038 28
17631 22036 22039 28
17632 22036 22040 28
17633 22041 22042 28
17634 22041 22043 28
17635 22041 22044 28
17636 22041 22045 28
17637 22046 22047 28
17638 22046 22048 28
17639 22046 22049 28
17640 22046 22050 28
17641 22051 22052 28
17642 22051 22053 28
17643 22051 22054 28
17644 22051 22055 28
17645 22056 22057 28
17646 22056 22058 28
17647 22056 22059 28
17648 22056 22060 28
17649 22061 22062 28
17650 22061 22063 28
17651 22061 22064 28
17652 22061 22065 28
17653 22066 22067 28
17654 22066 22068 28
17655 22066 22069 28
17656 22066 22070 28
17657 22071 22072 28
17658 22071 22073 28
17659 22071 22074 28
17660 22071 22075 28
17661 22076 22077 28
17662 22076 22078 28
17663 22076 22079 28
17664 22076 22080 28
17665 22081 22082 28
17666 22081 22083 28
17667 22081 22084 28
17668 22081 22085 28
17669 22086 22087 28
17670 22086 22088 28
17671 22086 22089 28
17672 22086 22090 28
17673 22091 22092 28
17674 22091 22093 28
17675 22091 22094 28
17676 22091 22095 28
17677 22096 22097 28
17678 22096 22098 28
17679 22096 22099 28
17680 22096 22100 28
17681 22101 22102 28
17682 22101 22103 28
17683 22101 22104 28
17684 22101 22105 28
17685 22106 22107 28
17686 22106 22108 28
17687 22106 22109 28
17688 22106 22110 28
17689 22111 22112 28
17690 22111 22113 28
17691 22111 22114 28
17692 22111 22115 28
17693 22116 22117 28
17694 22116 22118 28
17695 22116 22119 28
17696 22116 22120 28
17697 22121 22122 28
17698 22121 22123 28
17699 22121 22124 28
17700 22121 22125 28
17701 22126 22127 28
17702 22126 22128 28
17703 22126 22129 28
17704 22126 22130 28
17705 22131 22132 28
17706 22131 22133 28
17707 22131 22134 28
17708 22131 22135 28
17709 22136 22137 28
17710 22136 22138 28
17711 22136 22139 28
17712 22136 22140 28
17713 22141 22142 28
17714 22141 22143 28
17715 22141 22144 28
17716 22141 22145 28
17717 22146 22147 28
17718 22146 22148 28
17719 22146 22149 28
17720 22146 22150 28
17721 22151 22152 28
17722 22151 22153 28
17723 22151 22154 28
17724 22151 22155 28
17725 22156 22157 28
17726 22156 22158 28
17727 22156 22159 28
17728 22156 22160 28
17729 22161 22162 28
17730 22161 22163 28
17731 22161 22164 28
17732 22161 22165 28
17733 22166 22167 28
17734 22166 22168 28
17735 22166 22169 28
17736 22166 22170 28
17737 22171 22172 28
17738 22171 22173 28
17739 22171 22174 28
17740 22171 22175 28
17741 22176 22177 28
17742 22176 22178 28
17743 22176 22179 28
17744 22176 22180 28
17745 22181 22182 28
17746 22181 22183 28
17747 22181 22184 28
17748 22181 22185 28
17749 22186 22187 28
17750 22186 22188 28
17751 22186 22189 28
17752 22186 22190 28
17753 22191 22192 28
17754 22191 22193 28
17755 22191 22194 28
17756 22191 22195 28
17757 22196 22197 28
17758 22196 22198 28
17759 22196 22199 28
17760 22196 22200 28
17761 22201 22202 28
17762 22201 22203 28
17763 22201 22204 28
17764 22201 22205 28
17765 22206 22207 28
17766 22206 22208 28
17767 22206 22209 28
17768 22206 22210 28
17769 22211 22212 28
17770 22211 22213 28
17771 22211 22214 28
17772 22211 22215 28
17773 22216 22217 28
17774 22216 22218 28
17775 22216 22219 28
17776 22216 22220 28
17777 22221 22222 28
17778 22221 22223 28
17779 22221 22224 28
17780 22221 22225 28
17781 22226 22227 28
17782 22226 22228 28
17783 22226 22229 28
17784 22226 22230 28
17785 22231 22232 28
17786 22231 22233 28
17787 22231 22234 28
17788 22231 22235 28
17789 22236 22237 28
17790 22236 22238 28
17791 22236 22239 28
17792 22236 22240 28
17793 22241 22242 28
17794 22241 22243 28
17795 22241 22244 28
17796 22241 22245 28
17797 22246 22247 28
17798 22246 22248 28
17799 22246 22249 28
17800 22246 22250 28
17801 22251 22252 28
17802 22251 22253 28
17803 22251 22254 28
17804 22251 22255 28
17805 22256 22257 28
17806 22256 22258 28
17807 22256 22259 28
17808 22256 22260 28
17809 22261 22262 28
17810 22261 22263 28
17811 22261 22264 28
17812 22261 22265 28
17813 22266 22267 28
17814 22266 22268 28
17815 22266 22269 28
17816 22266 22270 28
17817 22271 22272 28
17818 22271 22273 28
17819 22271 22274 28
17820 22271 22275 28
17821 22276 22277 28
17822 22276 22278 28
17823 22276 22279 28
17824 22276 22280 28
17825 22281 22282 28
17826 22281 22283 28
17827 22281 22284 28
17828 22281 22285 28
17829 22286 22287 28
17830 22286 22288 28
17831 22286 22289 28
17832 22286 22290 28
17833 22291 22292 28
17834 22291 22293 28
17835 22291 22294 28
17836 22291 22295 28
17837 22296 22297 28
17838 22296 22298 28
17839 22296 22299 28
17840 22296 22300 28
17841 22301 22302 28
17842 22301 22303 28
17843 22301 22304 28
17844 22301 22305 28
17845 22306 22307 28
17846 22306 22308 28
17847 22306 22309 28
17848 22306 22310 28
17849 22311 22312 28
17850 22311 22313 28
17851 22311 22314 28
17852 22311 22315 28
17853 22316 22317 28
17854 22316 22318 28
17855 22316 22319 28
17856 22316 22320 28
17857 22321 22322 28
17858 22321 22323 28
17859 22321 22324 28
17860 22321 22325 28
17861 22326 22327 28
17862 22326 22328 28
17863 22326 22329 28
17864 22326 22330 28
17865 22331 22332 28
17866 22331 22333 28
17867 22331 22334 28
17868 22331 22335 28
17869 22336 22337 28
17870 22336 22338 28
17871 22336 22339 28
17872 22336 22340 28
17873 22341 22342 28
17874 22341 22343 28
17875 22341 22344 28
17876 22341 22345 28
17877 22346 22347 28
17878 22346 22348 28
17879 22346 22349 28
17880 22346 22350 28
17881 22351 22352 28
17882 22351 22353 28
17883 22351 22354 28
17884 22351 22355 28
17885 22356 22357 28
17886 22356 22358 28
17887 22356 22359 28
17888 22356 22360 28
17889 22361 22362 28
17890 22361 22363 28
17891 22361 22364 28
17892 22361 22365 28
17893 22366 22367 28
17894 22366 22368 28
17895 22366 22369 28
17896 22366 22370 28
17897 22371 22372 28
17898 22371 22373 28
17899 22371 22374 28
17900 22371 22375 28
17901 22376 22377 28
17902 22376 22378 28
17903 22376 22379 28
17904 22376 22380 28
17905 22381 22382 28
17906 22381 22383 28
17907 22381 22384 28
17908 22381 22385 28
17909 22386 22387 28
17910 22386 22388 28
17911 22386 22389 28
17912 22386 22390 28
17913 22391 22392 28
17914 22391 22393 28
17915 22391 22394 28
17916 22391 22395 28
17917 22396 22397 28
17918 22396 22398 28
17919 22396 22399 28
17920 22396 22400 28
17921 22401 22402 28
17922 22401 22403 28
17923 22401 22404 28
17924 22401 22405 28
17925 22406 22407 28
17926 22406 22408 28
17927 22406 22409 28
17928 22406 22410 28
17929 22411 22412 28
17930 22411 22413 28
17931 22411 22414 28
17932 22411 22415 28
17933 22416 22417 28
17934 22416 22418 28
17935 22416 22419 28
17936 22416 22420 28
17937 22421 22422 28
17938 22421 22423 28
17939 22421 22424 28
17940 22421 22425 28
17941 22426 22427 28
17942 22426 22428 28
17943 22426 22429 28
17944 22426 22430 28
17945 22431 22432 28
17946 22431 22433 28
17947 22431 22434 28
17948 22431 22435 28
17949 22436 22437 28
17950 22436 22438 28
17951 22436 22439 28
17952 22436 22440 28
17953 22441 22442 28
17954 22441 22443 28
17955 22441 22444 28
17956 22441 22445 28
17957 22446 22447 28
17958 22446 22448 28
17959 22446 22449 28
17960 22446 22450 28
17961 22451 22452 28
17962 22451 22453 28
17963 22451 22454 28
17964 22451 22455 28
17965 22456 22457 28
17966 22456 22458 28
17967 22456 22459 28
17968 22456 22460 28
17969 22461 22462 28
17970 22461 22463 28
17971 22461 22464 28
17972 22461 22465 28
17973 22466 22467 28
17974 22466 22468 28
17975 22466 22469 28
17976 22466 22470 28
17977 22471 22472 28
17978 22471 22473 28
17979 22471 22474 28
17980 22471 22475 28
17981 22476 22477 28
17982 22476 22478 28
17983 22476 22479 28
17984 22476 22480 28
17985 22481 22482 28
17986 22481 22483 28
17987 22481 22484 28
17988 22481 22485 28
17989 22486 22487 28
17990 22486 22488 28
17991 22486 22489 28
17992 22486 22490 28
17993 22491 22492 28
17994 22491 22493 28
17995 22491 22494 28
17996 22491 22495 28
17997 22496 22497 28
17998 22496 22498 28
17999 22496 22499 28
18000 22496 22500 28
18001 22501 22502 28
18002 22501 22503 28
18003 22501 22504 28
18004 22501 22505 28
18005 22506 22507 28
18006 22506 22508 28
18007 22506 22509 28
18008 22506 22510 28
18009 22511 22512 28
18010 22511 22513 28
18011 22511 22514 28
18012 22511 22515 28
18013 22516 22517 28
18014 22516 22518 28
18015 22516 22519 28
18016 22516 22520 28
18017 22521 22522 28
18018 22521 22523 28
18019 22521 22524 28
18020 22521 22525 28
18021 22526 22527 28
18022 22526 22528 28
18023 22526 22529 28
18024 22526 22530 28
18025 22531 22532 28
18026 22531 22533 28
18027 22531 22534 28
18028 22531 22535 28
18029 22536 22537 28
18030 22536 22538 28
18031 22536 22539 28
18032 22536 22540 28
18033 22541 22542 28
18034 22541 22543 28
18035 22541 22544 28
18036 22541 22545 28
18037 22546 22547 28
18038 22546 22548 28
18039 22546 22549 28
18040 22546 22550 28
18041 22551 22552 28
18042 22551 22553 28
18043 22551 22554 28
18044 22551 22555 28
18045 22556 22557 28
18046 22556 22558 28
18047 22556 22559 28
18048 22556 22560 28
18049 22561 22562 28
18050 22561 22563 28
18051 22561 22564 28
18052 22561 22565 28
18053 22566 22567 28
18054 22566 22568 28
18055 22566 22569 28
18056 22566 22570 28
18057 22571 22572 28
18058 22571 22573 28
18059 22571 22574 28
18060 22571 22575 28
18061 22576 22577 28
18062 22576 22578 28
18063 22576 22579 28
18064 22576 22580 28
18065 22581 22582 28
18066 22581 22583 28
18067 22581 22584 28
18068 22581 22585 28
18069 22586 22587 28
18070 22586 22588 28
18071 22586 22589 28
18072 22586 22590 28
18073 22591 22592 28
18074 22591 22593 28
18075 22591 22594 28
18076 22591 22595 28
18077 22596 22597 28
18078 22596 22598 28
18079 22596 22599 28
18080 22596 22600 28
18081 22601 22602 28
18082 22601 22603 28
18083 22601 22604 28
18084 22601 22605 28
18085 22606 22607 28
18086 22606 22608 28
18087 22606 22609 28
18088 22606 22610 28
18089 22611 22612 28
18090 22611 22613 28
18091 22611 22614 28
18092 22611 22615 28
18093 22616 22617 28
18094 22616 22618 28
18095 22616 22619 28
18096 22616 22620 28
18097 22621 22622 28
18098 22621 22623 28
18099 22621 22624 28
18100 22621 22625 28
18101 22626 22627 28
18102 22626 22628 28
18103 22626 22629 28
18104 22626 22630 28
18105 22631 22632 28
18106 22631 22633 28
18107 22631 22634 28
18108 22631 22635 28
18109 22636 22637 28
18110 22636 22638 28
18111 22636 22639 28
18112 22636 22640 28
18113 22641 22642 28
18114 22641 22643 28
18115 22641 22644 28
18116 22641 22645 28
18117 22646 22647 28
18118 22646 22648 28
18119 22646 22649 28
18120 22646 22650 28
18121 22651 22652 28
18122 22651 22653 28
18123 22651 22654 28
18124 22651 22655 28
18125 22656 22657 28
18126 22656 22658 28
18127 22656 22659 28
18128 22656 22660 28
18129 22661 22662 28
18130 22661 22663 28
18131 22661 22664 28
18132 22661 22665 28
18133 22666 22667 28
18134 22666 22668 28
18135 22666 22669 28
18136 22666 22670 28
18137 22671 22672 28
18138 22671 22673 28
18139 22671 22674 28
18140 22671 22675 28
18141 22676 22677 28
18142 22676 22678 28
18143 22676 22679 28
18144 22676 22680 28
18145 22681 22682 28
18146 22681 22683 28
18147 22681 22684 28
18148 22681 22685 28
18149 22686 22687 28
18150 22686 22688 28
18151 22686 22689 28
18152 22686 22690 28
18153 22691 22692 28
18154 22691 22693 28
18155 22691 22694 28
18156 22691 22695 28
18157 22696 22697 28
18158 22696 22698 28
18159 22696 22699 28
18160 22696 22700 28
18161 22701 22702 28
18162 22701 22703 28
18163 22701 22704 28
18164 22701 22705 28
18165 22706 22707 28
18166 22706 22708 28
18167 22706 22709 28
18168 22706 22710 28
18169 22711 22712 28
18170 22711 22713 28
18171 22711 22714 28
18172 22711 22715 28
18173 22716 22717 28
18174 22716 22718 28
18175 22716 22719 28
18176 22716 22720 28
18177 22721 22722 28
18178 22721 22723 28
18179 22721 22724 28
18180 22721 22725 28
18181 22726 22727 28
18182 22726 22728 28
18183 22726 22729 28
18184 22726 22730 28
18185 22731 22732 28
18186 22731 22733 28
18187 22731 22734 28
18188 22731 22735 28
18189 22736 22737 28
18190 22736 22738 28
18191 22736 22739 28
18192 22736 22740 28
18193 22741 22742 28
18194 22741 22743 28
18195 22741 22744 28
18196 22741 22745 28
18197 22746 22747 28
18198 22746 22748 28
18199 22746 22749 28
18200 22746 22750 28
18201 22751 22752 28
18202 22751 22753 28
18203 22751 22754 28
18204 22751 22755 28
18205 22756 22757 28
18206 22756 22758 28
18207 22756 22759 28
18208 22756 22760 28
18209 22761 22762 28
18210 22761 22763 28
18211 22761 22764 28
18212 22761 22765 28
18213 22766 22767 28
18214 22766 22768 28
18215 22766 22769 28
18216 22766 22770 28
18217 22771 22772 28
18218 22771 22773 28
18219 22771 22774 28
18220 22771 22775 28
18221 22776 22777 28
18222 22776 22778 28
18223 22776 22779 28
18224 22776 22780 28
18225 22781 22782 28
18226 22781 22783 28
18227 22781 22784 28
18228 22781 22785 28
18229 22786 22787 28
18230 22786 22788 28
18231 22786 22789 28
18232 22786 22790 28
18233 22791 22792 28
18234 22791 22793 28
18235 22791 22794 28
18236 22791 22795 28
18237 22796 22797 28
18238 22796 22798 28
18239 22796 22799 28
18240 22796 22800 28
18241 22801 22802 28
18242 22801 22803 28
18243 22801 22804 28
18244 22801 22805 28
18245 22806 22807 28
18246 22806 22808 28
18247 22806 22809 28
18248 22806 22810 28
18249 22811 22812 28
18250 22811 22813 28
18251 22811 22814 28
18252 22811 22815 28
18253 22816 22817 28
18254 22816 22818 28
18255 22816 22819 28
18256 22816 22820 28
18257 22821 22822 28
18258 22821 22823 28
18259 22821 22824 28
18260 22821 22825 28
18261 22826 22827 28
18262 22826 22828 28
18263 22826 22829 28
18264 22826 22830 28
18265 22831 22832 28
18266 22831 22833 28
18267 22831 22834 28
18268 22831 22835 28
18269 22836 22837 28
18270 22836 22838 28
18271 22836 22839 28
18272 22836 22840 28
18273 22841 22842 28
18274 22841 22843 28
18275 22841 22844 28
18276 22841 22845 28
18277 22846 22847 28
18278 22846 22848 28
18279 22846 22849 28
18280 22846 22850 28
18281 22851 22852 28
18282 22851 22853 28
18283 22851 22854 28
18284 22851 22855 28
18285 22856 22857 28
18286 22856 22858 28
18287 22856 22859 28
18288 22856 22860 28
18289 22861 22862 28
18290 22861 22863 28
18291 22861 22864 28
18292 22861 22865 28
18293 22866 22867 28
18294 22866 22868 28
18295 22866 22869 28
18296 22866 22870 28
18297 22871 22872 28
18298 22871 22873 28
18299 22871 22874 28
18300 22871 22875 28
18301 22876 22877 28
18302 22876 22878 28
18303 22876 22879 28
18304 22876 22880 28
18305 22881 22882 28
18306 22881 22883 28
18307 22881 22884 28
18308 22881 22885 28
18309 22886 22887 28
18310 22886 22888 28
18311 22886 22889 28
18312 22886 22890 28
18313 22891 22892 28
18314 22891 22893 28
18315 22891 22894 28
18316 22891 22895 28
18317 22896 22897 28
18318 22896 22898 28
18319 22896 22899 28
18320 22896 22900 28
18321 22901 22902 28
18322 22901 22903 28
18323 22901 22904 28
18324 22901 22905 28
18325 22906 22907 28
18326 22906 22908 28
18327 22906 22909 28
18328 22906 22910 28
18329 22911 22912 28
18330 22911 22913 28
18331 22911 22914 28
18332 22911 22915 28
18333 22916 22917 28
18334 22916 22918 28
18335 22916 22919 28
18336 22916 22920 28
18337 22921 22922 28
18338 22921 22923 28
18339 22921 22924 28
18340 22921 22925 28
18341 22926 22927 28
18342 22926 22928 28
18343 22926 22929 28
18344 22926 22930 28
18345 22931 22932 28
18346 22931 22933 28
18347 22931 22934 28
18348 22931 22935 28
18349 22936 22937 28
18350 22936 22938 28
18351 22936 22939 28
18352 22936 22940 28
18353 22941 22942 28
18354 22941 22943 28
18355 22941 22944 28
18356 22941 22945 28
18357 22946 22947 28
18358 22946 22948 28
18359 22946 22949 28
18360 22946 22950 28
18361 22951 22952 28
18362 22951 22953 28
18363 22951 22954 28
18364 22951 22955 28
18365 22956 22957 28
18366 22956 22958 28
18367 22956 22959 28
18368 22956 22960 28
18369 22961 22962 28
18370 22961 22963 28
18371 22961 22964 28
18372 22961 22965 28
18373 22966 22967 28
18374 22966 22968 28
18375 22966 22969 28
18376 22966 22970 28
18377 22971 22972 28
18378 22971 22973 28
18379 22971 22974 28
18380 22971 22975 28
18381 22976 22977 28
18382 22976 22978 28
18383 22976 22979 28
18384 22976 22980 28
18385 22981 22982 28
18386 22981 22983 28
18387 22981 22984 28
18388 22981 22985 28
18389 22986 22987 28
18390 22986 22988 28
18391 22986 22989 28
18392 22986 22990 28
18393 22991 22992 28
18394 22991 22993 28
18395 22991 22994 28
18396 22991 22995 28
18397 22996 22997 28
18398 22996 22998 28
18399 22996 22999 28
18400 22996 23000 28
18401 23001 23002 28
18402 23001 23003 28
18403 23001 23004 28
18404 23001 23005 28
18405 23006 23007 28
18406 23006 23008 28
18407 23006 23009 28
18408 23006 23010 28
18409 23011 23012 28
18410 23011 23013 28
18411 23011 23014 28
18412 23011 23015 28
18413 23016 23017 28
18414 23016 23018 28
18415 23016 23019 28
18416 23016 23020 28
18417 23021 23022 28
18418 23021 23023 28
18419 23021 23024 28
18420 23021 23025 28
18421 23026 23027 28
18422 23026 23028 28
18423 23026 23029 28
18424 23026 23030 28
18425 23031 23032 28
18426 23031 23033 28
18427 23031 23034 28
18428 23031 23035 28
18429 23036 23037 28
18430 23036 23038 28
18431 23036 23039 28
18432 23036 23040 28
18433 23041 23042 28
18434 23041 23043 28
18435 23041 23044 28
18436 23041 23045 28
18437 23046 23047 28
18438 23046 23048 28
18439 23046 23049 28
18440 23046 23050 28
18441 23051 23052 28
18442 23051 23053 28
18443 23051 23054 28
18444 23051 23055 28
18445 23056 23057 28
18446 23056 23058 28
18447 23056 23059 28
18448 23056 23060 28
18449 23061 23062 28
18450 23061 23063 28
18451 23061 23064 28
18452 23061 23065 28
18453 23066 23067 28
18454 23066 23068 28
18455 23066 23069 28
18456 23066 23070 28
18457 23071 23072 28
18458 23071 23073 28
18459 23071 23074 28
18460 23071 23075 28
18461 23076 23077 28
18462 23076 23078 28
18463 23076 23079 28
18464 23076 23080 28
18465 23081 23082 28
18466 23081 23083 28
18467 23081 23084 28
18468 23081 23085 28
18469 23086 23087 28
18470 23086 23088 28
18471 23086 23089 28
18472 23086 23090 28
18473 23091 23092 28
18474 23091 23093 28
18475 23091 23094 28
18476 23091 23095 28
18477 23096 23097 28
18478 23096 23098 28
18479 23096 23099 28
18480 23096 23100 28
18481 23101 23102 28
18482 23101 23103 28
18483 23101 23104 28
18484 23101 23105 28
18485 23106 23107 28
18486 23106 23108 28
18487 23106 23109 28
18488 23106 23110 28
18489 23111 23112 28
18490 23111 23113 28
18491 23111 23114 28
18492 23111 23115 28
18493 23116 23117 28
18494 23116 23118 28
18495 23116 23119 28
18496 23116 23120 28
18497 23121 23122 28
18498 23121 23123 28
18499 23121 23124 28
18500 23121 23125 28
18501 23126 23127 28
18502 23126 23128 28
18503 23126 23129 28
18504 23126 23130 28
18505 23131 23132 28
18506 23131 23133 28
18507 23131 23134 28
18508 23131 23135 28
18509 23136 23137 28
18510 23136 23138 28
18511 23136 23139 28
18512 23136 23140 28
18513 23141 23142 28
18514 23141 23143 28
18515 23141 23144 28
18516 23141 23145 28
18517 23146 23147 28
18518 23146 23148 28
18519 23146 23149 28
18520 23146 23150 28
18521 23151 23152 28
18522 23151 23153 28
18523 23151 23154 28
18524 23151 23155 28
18525 23156 23157 28
18526 23156 23158 28
18527 23156 23159 28
18528 23156 23160 28
18529 23161 23162 28
18530 23161 23163 28
18531 23161 23164 28
18532 23161 23165 28
18533 23166 23167 28
18534 23166 23168 28
18535 23166 23169 28
18536 23166 23170 28
18537 23171 23172 28
18538 23171 23173 28
18539 23171 23174 28
18540 23171 23175 28
18541 23176 23177 28
18542 23176 23178 28
18543 23176 23179 28
18544 23176 23180 28
18545 23181 23182 28
18546 23181 23183 28
18547 23181 23184 28
18548 23181 23185 28
18549 23186 23187 28
18550 23186 23188 28
18551 23186 23189 28
18552 23186 23190 28
18553 23191 23192 28
18554 23191 23193 28
18555 23191 23194 28
18556 23191 23195 28
18557 23196 23197 28
18558 23196 23198 28
18559 23196 23199 28
18560 23196 23200 28
18561 23201 23202 28
18562 23201 23203 28
18563 23201 23204 28
18564 23201 23205 28
18565 23206 23207 28
18566 23206 23208 28
18567 23206 23209 28
18568 23206 23210 28
18569 23211 23212 28
18570 23211 23213 28
18571 23211 23214 28
18572 23211 23215 28
18573 23216 23217 28
18574 23216 23218 28
18575 23216 23219 28
18576 23216 23220 28
18577 23221 23222 28
18578 23221 23223 28
18579 23221 23224 28
18580 23221 23225 28
18581 23226 23227 28
18582 23226 23228 28
18583 23226 23229 28
18584 23226 23230 28
18585 23231 23232 28
18586 23231 23233 28
18587 23231 23234 28
18588 23231 23235 28
18589 23236 23237 28
18590 23236 23238 28
18591 23236 23239 28
18592 23236 23240 28
18593 23241 23242 28
18594 23241 23243 28
18595 23241 23244 28
18596 23241 23245 28
18597 23246 23247 28
18598 23246 23248 28
18599 23246 23249 28
18600 23246 23250 28
18601 23251 23252 28
18602 23251 23253 28
18603 23251 23254 28
18604 23251 23255 28
18605 23256 23257 28
18606 23256 23258 28
18607 23256 23259 28
18608 23256 23260 28
18609 23261 23262 28
18610 23261 23263 28
18611 23261 23264 28
18612 23261 23265 28
18613 23266 23267 28
18614 23266 23268 28
18615 23266 23269 28
18616 23266 23270 28
18617 23271 23272 28
18618 23271 23273 28
18619 23271 23274 28
18620 23271 23275 28
18621 23276 23277 28
18622 23276 23278 28
18623 23276 23279 28
18624 23276 23280 28
18625 23281 23282 28
18626 23281 23283 28
18627 23281 23284 28
18628 23281 23285 28
18629 23286 23287 28
18630 23286 23288 28
18631 23286 23289 28
18632 23286 23290 28
18633 23291 23292 28
18634 23291 23293 28
18635 23291 23294 28
18636 23291 23295 28
18637 23296 23297 28
18638 23296 23298 28
18639 23296 23299 28
18640 23296 23300 28
18641 23301 23302 28
18642 23301 23303 28
18643 23301 23304 28
18644 23301 23305 28
18645 23306 23307 28
18646 23306 23308 28
18647 23306 23309 28
18648 23306 23310 28
18649 23311 23312 28
18650 23311 23313 28
18651 23311 23314 28
18652 23311 23315 28
18653 23316 23317 28
18654 23316 23318 28
18655 23316 23319 28
18656 23316 23320 28
18657 23321 23322 28
18658 23321 23323 28
18659 23321 23324 28
18660 23321 23325 28
18661 23326 23327 28
18662 23326 23328 28
18663 23326 23329 28
18664 23326 23330 28
18665 23331 23332 28
18666 23331 23333 28
18667 23331 23334 28
18668 23331 23335 28
18669 23336 23337 28
18670 23336 23338 28
18671 23336 23339 28
18672 23336 23340 28
18673 23341 23342 28
18674 23341 23343 28
18675 23341 23344 28
18676 23341 23345 28
18677 23346 23347 28
18678 23346 23348 28
18679 23346 23349 28
18680 23346 23350 28
18681 23351 23352 28
18682 23351 23353 28
18683 23351 23354 28
18684 23351 23355 28
18685 23356 23357 28
18686 23356 23358 28
18687 23356 23359 28
18688 23356 23360 28
18689 23361 23362 28
18690 23361 23363 28
18691 23361 23364 28
18692 23361 23365 28
18693 23366 23367 28
18694 23366 23368 28
18695 23366 23369 28
18696 23366 23370 28
18697 23371 23372 28
18698 23371 23373 28
18699 23371 23374 28
18700 23371 23375 28
18701 23376 23377 28
18702 23376 23378 28
18703 23376 23379 28
18704 23376 23380 28
18705 23381 23382 28
18706 23381 23383 28
18707 23381 23384 28
18708 23381 23385 28
18709 23386 23387 28
18710 23386 23388 28
18711 23386 23389 28
18712 23386 23390 28
18713 23391 23392 28
18714 23391 23393 28
18715 23391 23394 28
18716 23391 23395 28
18717 23396 23397 28
18718 23396 23398 28
18719 23396 23399 28
18720 23396 23400 28
18721 23401 23402 28
18722 23401 23403 28
18723 23401 23404 28
18724 23401 23405 28
18725 23406 23407 28
18726 23406 23408 28
18727 23406 23409 28
18728 23406 23410 28
18729 23411 23412 28
18730 23411 23413 28
18731 23411 23414 28
18732 23411 23415 28
18733 23416 23417 28
18734 23416 23418 28
18735 23416 23419 28
18736 23416 23420 28
18737 23421 23422 28
18738 23421 23423 28
18739 23421 23424 28
18740 23421 23425 28
18741 23426 23427 28
18742 23426 23428 28
18743 23426 23429 28
18744 23426 23430 28
18745 23431 23432 28
18746 23431 23433 28
18747 23431 23434 28
18748 23431 23435 28
18749 23436 23437 28
18750 23436 23438 28
18751 23436 23439 28
18752 23436 23440 28
18753 23441 23442 28
18754 23441 23443 28
18755 23441 23444 28
18756 23441 23445 28
18757 23446 23447 28
18758 23446 23448 28
18759 23446 23449 28
18760 23446 23450 28
18761 23451 23452 28
18762 23451 23453 28
18763 23451 23454 28
18764 23451 23455 28
18765 23456 23457 28
18766 23456 23458 28
18767 23456 23459 28
18768 23456 23460 28
18769 23461 23462 28
18770 23461 23463 28
18771 23461 23464 28
18772 23461 23465 28
18773 23466 23467 28
18774 23466 23468 28
18775 23466 23469 28
18776 23466 23470 28
18777 23471 23472 28
18778 23471 23473 28
18779 23471 23474 28
18780 23471 23475 28
18781 23476 23477 28
18782 23476 23478 28
18783 23476 23479 28
18784 23476 23480 28
18785 23481 23482 28
18786 23481 23483 28
18787 23481 23484 28
18788 23481 23485 28
18789 23486 23487 28
18790 23486 23488 28
18791 23486 23489 28
18792 23486 23490 28
18793 23491 23492 28
18794 23491 23493 28
18795 23491 23494 28
18796 23491 23495 28
18797 23496 23497 28
18798 23496 23498 28
18799 23496 23499 28
18800 23496 23500 28
18801 23501 23502 28
18802 23501 23503 28
18803 23501 23504 28
18804 23501 23505 28
18805 23506 23507 28
18806 23506 23508 28
18807 23506 23509 28
18808 23506 23510 28
18809 23511 23512 28
18810 23511 23513 28
18811 23511 23514 28
18812 23511 23515 28
18813 23516 23517 28
18814 23516 23518 28
18815 23516 23519 28
18816 23516 23520 28
18817 23521 23522 28
18818 23521 23523 28
18819 23521 23524 28
18820 23521 23525 28
18821 23526 23527 28
18822 23526 23528 28
18823 23526 23529 28
18824 23526 23530 28
18825 23531 23532 28
18826 23531 23533 28
18827 23531 23534 28
18828 23531 23535 28
18829 23536 23537 28
18830 23536 23538 28
18831 23536 23539 28
18832 23536 23540 28
18833 23541 23542 28
18834 23541 23543 28
18835 23541 23544 28
18836 23541 23545 28
18837 23546 23547 28
18838 23546 23548 28
18839 23546 23549 28
18840 23546 23550 28
18841 23551 23552 28
18842 23551 23553 28
18843 23551 23554 28
18844 23551 23555 28
18845 23556 23557 28
18846 23556 23558 28
18847 23556 23559 28
18848 23556 23560 28
18849 23561 23562 28
18850 23561 23563 28
18851 23561 23564 28
18852 23561 23565 28
18853 23566 23567 28
18854 23566 23568 28
18855 23566 23569 28
18856 23566 23570 28
18857 23571 23572 28
18858 23571 23573 28
18859 23571 23574 28
18860 23571 23575 28
18861 23576 23577 28
18862 23576 23578 28
18863 23576 23579 28
18864 23576 23580 28
18865 23581 23582 28
18866 23581 23583 28
18867 23581 23584 28
18868 23581 23585 28
18869 23586 23587 28
18870 23586 23588 28
18871 23586 23589 28
18872 23586 23590 28
18873 23591 23592 28
18874 23591 23593 28
18875 23591 23594 28
18876 23591 23595 28
18877 23596 23597 28
18878 23596 23598 28
18879 23596 23599 28
18880 23596 23600 28
18881 23601 23602 28
18882 23601 23603 28
18883 23601 23604 28
18884 23601 23605 28
18885 23606 23607 28
18886 23606 23608 28
18887 23606 23609 28
18888 23606 23610 28
18889 23611 23612 28
18890 23611 23613 28
18891 23611 23614 28
18892 23611 23615 28
18893 23616 23617 28
18894 23616 23618 28
18895 23616 23619 28
18896 23616 23620 28
18897 23621 23622 28
18898 23621 23623 28
18899 23621 23624 28
18900 23621 23625 28
18901 23626 23627 28
18902 23626 23628 28
18903 23626 23629 28
18904 23626 23630 28
18905 23631 23632 28
18906 23631 23633 28
18907 23631 23634 28
18908 23631 23635 28
18909 23636 23637 28
18910 23636 23638 28
18911 23636 23639 28
18912 23636 23640 28
18913 23641 23642 28
18914 23641 23643 28
18915 23641 23644 28
18916 23641 23645 28
18917 23646 23647 28
18918 23646 23648 28
18919 23646 23649 28
18920 23646 23650 28
18921 23651 23652 28
18922 23651 23653 28
18923 23651 23654 28
18924 23651 23655 28
18925 23656 23657 28
18926 23656 23658 28
18927 23656 23659 28
18928 23656 23660 28
18929 23661 23662 28
18930 23661 23663 28
18931 23661 23664 28
18932 23661 23665 28
18933 23666 23667 28
18934 23666 23668 28
18935 23666 23669 28
18936 23666 23670 28
18937 23671 23672 28
18938 23671 23673 28
18939 23671 23674 28
18940 23671 23675 28
18941 23676 23677 28
18942 23676 23678 28
18943 23676 23679 28
18944 23676 23680 28
18945 23681 23682 28
18946 23681 23683 28
18947 23681 23684 28
18948 23681 23685 28
18949 23686 23687 28
18950 23686 23688 28
18951 23686 23689 28
18952 23686 23690 28
18953 23691 23692 28
18954 23691 23693 28
18955 23691 23694 28
18956 23691 23695 28
18957 23696 23697 28
18958 23696 23698 28
18959 23696 23699 28
18960 23696 23700 28
18961 23701 23702 28
18962 23701 23703 28
18963 23701 23704 28
18964 23701 23705 28
18965 23706 23707 28
18966 23706 23708 28
18967 23706 23709 28
18968 23706 23710 28
18969 23711 23712 28
18970 23711 23713 28
18971 23711 23714 28
18972 23711 23715 28
18973 23716 23717 28
18974 23716 23718 28
18975 23716 23719 28
18976 23716 23720 28
18977 23721 23722 28
18978 23721 23723 28
18979 23721 23724 28
18980 23721 23725 28
18981 23726 23727 28
18982 23726 23728 28
18983 23726 23729 28
18984 23726 23730 28
18985 23731 23732 28
18986 23731 23733 28
18987 23731 23734 28
18988 23731 23735 28
18989 23736 23737 28
18990 23736 23738 28
18991 23736 23739 28
18992 23736 23740 28
18993 23741 23742 28
18994 23741 23743 28
18995 23741 23744 28
18996 23741 23745 28
18997 23746 23747 28
18998 23746 23748 28
18999 23746 23749 28
19000 23746 23750 28
19001 23751 23752 28
19002 23751 23753 28
19003 23751 23754 28
19004 23751 23755 28
19005 23756 23757 28
19006 23756 23758 28
19007 23756 23759 28
19008 23756 23760 28
19009 23761 23762 28
19010 23761 23763 28
19011 23761 23764 28
19012 23761 23765 28
19013 23766 23767 28
19014 23766 23768 28
19015 23766 23769 28
19016 23766 23770 28
19017 23771 23772 28
19018 23771 23773 28
19019 23771 23774 28
19020 23771 23775 28
19021 23776 23777 28
19022 23776 23778 28
19023 23776 23779 28
19024 23776 23780 28
19025 23781 23782 28
19026 23781 23783 28
19027 23781 23784 28
19028 23781 23785 28
19029 23786 23787 28
19030 23786 23788 28
19031 23786 23789 28
19032 23786 23790 28
19033 23791 23792 28
19034 23791 23793 28
19035 23791 23794 28
19036 23791 23795 28
19037 23796 23797 28
19038 23796 23798 28
19039 23796 23799 28
19040 23796 23800 28
19041 23801 23802 28
19042 23801 23803 28
19043 23801 23804 28
19044 23801 23805 28
19045 23806 23807 28
19046 23806 23808 28
19047 23806 23809 28
19048 23806 23810 28
19049 23811 23812 28
19050 23811 23813 28
19051 23811 23814 28
19052 23811 23815 28
19053 23816 23817 28
19054 23816 23818 28
19055 23816 23819 28
19056 23816 23820 28
19057 23821 23822 28
19058 23821 23823 28
19059 23821 23824 28
19060 23821 23825 28
19061 23826 23827 28
19062 23826 23828 28
19063 23826 23829 28
19064 23826 23830 28
19065 23831 23832 28
19066 23831 23833 28
19067 23831 23834 28
19068 23831 23835 28
19069 23836 23837 28
19070 23836 23838 28
19071 23836 23839 28
19072 23836 23840 28
19073 23841 23842 28
19074 23841 23843 28
19075 23841 23844 28
19076 23841 23845 28
19077 23846 23847 28
19078 23846 23848 28
19079 23846 23849 28
19080 23846 23850 28
19081 23851 23852 28
19082 23851 23853 28
19083 23851 23854 28
19084 23851 23855 28
19085 23856 23857 28
19086 23856 23858 28
19087 23856 23859 28
19088 23856 23860 28
19089 23861 23862 28
19090 23861 23863 28
19091 23861 23864 28
19092 23861 23865 28
19093 23866 23867 28
19094 23866 23868 28
19095 23866 23869 28
19096 23866 23870 28
19097 23871 23872 28
19098 23871 23873 28
19099 23871 23874 28
19100 23871 23875 28
19101 23876 23877 28
19102 23876 23878 28
19103 23876 23879 28
19104 23876 23880 28
19105 23881 23882 28
19106 23881 23883 28
19107 23881 23884 28
19108 23881 23885 28
19109 23886 23887 28
19110 23886 23888 28
19111 23886 23889 28
19112 23886 23890 28
19113 23891 23892 28
19114 23891 23893 28
19115 23891 23894 28
19116 23891 23895 28
19117 23896 23897 28
19118 23896 23898 28
19119 23896 23899 28
19120 23896 23900 28
19121 23901 23902 28
19122 23901 23903 28
19123 23901 23904 28
19124 23901 23905 28
19125 23906 23907 28
19126 23906 23908 28
19127 23906 23909 28
19128 23906 23910 28
19129 23911 23912 28
19130 23911 23913 28
19131 23911 23914 28
19132 23911 23915 28
19133 23916 23917 28
19134 23916 23918 28
19135 23916 23919 28
19136 23916 23920 28
19137 23921 23922 28
19138 23921 23923 28
19139 23921 23924 28
19140 23921 23925 28
19141 23926 23927 28
19142 23926 23928 28
19143 23926 23929 28
19144 23926 23930 28
19145 23931 23932 28
19146 23931 23933 28
19147 23931 23934 28
19148 23931 23935 28
19149 23936 23937 28
19150 23936 23938 28
19151 23936 23939 28
19152 23936 23940 28
19153 23941 23942 28
19154 23941 23943 28
19155 23941 23944 28
19156 23941 23945 28
19157 23946 23947 28
19158 23946 23948 28
19159 23946 23949 28
19160 23946 23950 28
19161 23951 23952 28
19162 23951 23953 28
19163 23951 23954 28
19164 23951 23955 28
19165 23956 23957 28
19166 23956 23958 28
19167 23956 23959 28
19168 23956 23960 28
19169 23961 23962 28
19170 23961 23963 28
19171 23961 23964 28
19172 23961 23965 28
19173 23966 23967 28
19174 23966 23968 28
19175 23966 23969 28
19176 23966 23970 28
19177 23971 23972 28
19178 23971 23973 28
19179 23971 23974 28
19180 23971 23975 28
19181 23976 23977 28
19182 23976 23978 28
19183 23976 23979 28
19184 23976 23980 28
19185 23981 23982 28
19186 23981 23983 28
19187 23981 23984 28
19188 23981 23985 28
19189 23986 23987 28
19190 23986 23988 28
19191 23986 23989 28
19192 23986 23990 28
19193 23991 23992 28
19194 23991 23993 28
19195 23991 23994 28
19196 23991 23995 28
19197 23996 23997 28
19198 23996 23998 28
19199 23996 23999 28
19200 23996 24000 28
19201 24001 24002 28
19202 24001 24003 28
19203 24001 24004 28
19204 24001 24005 28
19205 24006 24007 28
19206 24006 24008 28
19207 24006 24009 28
19208 24006 24010 28
19209 24011 24012 28
19210 24011 24013 28
19211 24011 24014 28
19212 24011 24015 28
19213 24016 24017 28
19214 24016 24018 28
19215 24016 24019 28
19216 24016 24020 28
19217 24021 24022 28
19218 24021 24023 28
19219 24021 24024 28
19220 24021 24025 28
19221 24026 24027 28
19222 24026 24028 28
19223 24026 24029 28
19224 24026 24030 28
19225 24031 24032 28
19226 24031 24033 28
19227 24031 24034 28
19228 24031 24035 28
19229 24036 24037 28
19230 24036 24038 28
19231 24036 24039 28
19232 24036 24040 28
19233 24041 24042 28
19234 24041 24043 28
19235 24041 24044 28
19236 24041 24045 28
19237 24046 24047 28
19238 24046 24048 28
19239 24046 24049 28
19240 24046 24050 28
19241 24051 24052 28
19242 24051 24053 28
19243 24051 24054 28
19244 24051 24055 28
19245 24056 24057 28
19246 24056 24058 28
19247 24056 24059 28
19248 24056 24060 28
19249 24061 24062 28
19250 24061 24063 28
19251 24061 24064 28
19252 24061 24065 28
19253 24066 24067 28
19254 24066 24068 28
19255 24066 24069 28
19256 24066 24070 28
19257 24071 24072 28
19258 24071 24073 28
19259 24071 24074 28
19260 24071 24075 28
19261 24076 24077 28
19262 24076 24078 28
19263 24076 24079 28
19264 24076 24080 28
19265 24081 24082 28
19266 24081 24083 28
19267 24081 24084 28
19268 24081 24085 28
19269 24086 24087 28
19270 24086 24088 28
19271 24086 24089 28
19272 24086 24090 28
19273 24091 24092 28
19274 24091 24093 28
19275 24091 24094 28
19276 24091 24095 28
19277 24096 24097 28
19278 24096 24098 28
19279 24096 24099 28
19280 24096 24100 28
19281 24101 24102 28
19282 24101 24103 28
19283 24101 24104 28
19284 24101 24105 28
19285 24106 24107 28
19286 24106 24108 28
19287 24106 24109 28
19288 24106 24110 28
19289 24111 24112 28
19290 24111 24113 28
19291 24111 24114 28
19292 24111 24115 28
19293 24116 24117 28
19294 24116 24118 28
19295 24116 24119 28
19296 24116 24120 28
19297 24121 24122 28
19298 24121 24123 28
19299 24121 24124 28
19300 24121 24125 28
19301 24126 24127 28
19302 24126 24128 28
19303 24126 24129 28
19304 24126 24130 28
19305 24131 24132 28
19306 24131 24133 28
19307 24131 24134 28
19308 24131 24135 28
19309 24136 24137 28
19310 24136 24138 28
19311 24136 24139 28
19312 24136 24140 28
19313 24141 24142 28
19314 24141 24143 28
19315 24141 24144 28
19316 24141 24145 28
19317 24146 24147 28
19318 24146 24148 28
19319 24146 24149 28
19320 24146 24150 28
19321 24151 24152 28
19322 24151 24153 28
19323 24151 24154 28
19324 24151 24155 28
19325 24156 24157 28
19326 24156 24158 28
19327 24156 24159 28
19328 24156 24160 28
19329 24161 24162 28
19330 24161 24163 28
19331 24161 24164 28
19332 24161 24165 28
19333 24166 24167 28
19334 24166 24168 28
19335 24166 24169 28
19336 24166 24170 28
19337 24171 24172 28
19338 24171 24173 28
19339 24171 24174 28
19340 24171 24175 28
19341 24176 24177 28
19342 24176 24178 28
19343 24176 24179 28
19344 24176 24180 28
19345 24181 24182 28
19346 24181 24183 28
19347 24181 24184 28
19348 24181 24185 28
19349 24186 24187 28
19350 24186 24188 28
19351 24186 24189 28
19352 24186 24190 28
19353 24191 24192 28
19354 24191 24193 28
19355 24191 24194 28
19356 24191 24195 28
19357 24196 24197 28
19358 24196 24198 28
19359 24196 24199 28
19360 24196 24200 28
19361 24201 24202 28
19362 24201 24203 28
19363 24201 24204 28
19364 24201 24205 28
19365 24206 24207 28
19366 24206 24208 28
19367 24206 24209 28
19368 24206 24210 28
19369 24211 24212 28
19370 24211 24213 28
19371 24211 24214 28
19372 24211 24215 28
19373 24216 24217 28
19374 24216 24218 28
19375 24216 24219 28
19376 24216 24220 28
19377 24221 24222 28
19378 24221 24223 28
19379 24221 24224 28
19380 24221 24225 28
19381 24226 24227 28
19382 24226 24228 28
19383 24226 24229 28
19384 24226 24230 28
19385 24231 24232 28
19386 24231 24233 28
19387 24231 24234 28
19388 24231 24235 28
19389 24236 24237 28
19390 24236 24238 28
19391 24236 24239 28
19392 24236 24240 28
19393 24241 24242 28
19394 24241 24243 28
19395 24241 24244 28
19396 24241 24245 28
19397 24246 24247 28
19398 24246 24248 28
19399 24246 24249 28
19400 24246 24250 28
19401 24251 24252 28
19402 24251 24253 28
19403 24251 24254 28
19404 24251 24255 28
19405 24256 24257 28
19406 24256 24258 28
19407 24256 24259 28
19408 24256 24260 28
19409 24261 24262 28
19410 24261 24263 28
19411 24261 24264 28
19412 24261 24265 28
19413 24266 24267 28
19414 24266 24268 28
19415 24266 24269 28
19416 24266 24270 28
19417 24271 24272 28
19418 24271 24273 28
19419 24271 24274 28
19420 24271 24275 28
19421 24276 24277 28
19422 24276 24278 28
19423 24276 24279 28
19424 24276 24280 28
19425 24281 24282 28
19426 24281 24283 28
19427 24281 24284 28
19428 24281 24285 28
19429 24286 24287 28
19430 24286 24288 28
19431 24286 24289 28
19432 24286 24290 28
19433 24291 24292 28
19434 24291 24293 28
19435 24291 24294 28
19436 24291 24295 28
19437 24296 24297 28
19438 24296 24298 28
19439 24296 24299 28
19440 24296 24300 28
19441 24301 24302 28
19442 24301 24303 28
19443 24301 24304 28
19444 24301 24305 28
19445 24306 24307 28
19446 24306 24308 28
19447 24306 24309 28
19448 24306 24310 28
19449 24311 24312 28
19450 24311 24313 28
19451 24311 24314 28
19452 24311 24315 28
19453 24316 24317 28
19454 24316 24318 28
19455 24316 24319 28
19456 24316 24320 28
19457 24321 24322 28
19458 24321 24323 28
19459 24321 24324 28
19460 24321 24325 28
19461 24326 24327 28
19462 24326 24328 28
19463 24326 24329 28
19464 24326 24330 28
19465 24331 24332 28
19466 24331 24333 28
19467 24331 24334 28
19468 24331 24335 28
19469 24336 24337 28
19470 24336 24338 28
19471 24336 24339 28
19472 24336 24340 28
19473 24341 24342 28
19474 24341 24343 28
19475 24341 24344 28
19476 24341 24345 28
19477 24346 24347 28
19478 24346 24348 28
19479 24346 24349 28
19480 24346 24350 28
19481 24351 24352 28
19482 24351 24353 28
19483 24351 24354 28
19484 24351 24355 28
19485 24356 24357 28
19486 24356 24358 28
19487 24356 24359 28
19488 24356 24360 28
19489 24361 24362 28
19490 24361 24363 28
19491 24361 24364 28
19492 24361 24365 28
19493 24366 24367 28
19494 24366 24368 28
19495 24366 24369 28
19496 24366 24370 28
19497 24371 24372 28
19498 24371 24373 28
19499 24371 24374 28
19500 24371 24375 28
19501 24376 24377 28
19502 24376 24378 28
19503 24376 24379 28
19504 24376 24380 28
19505 24381 24382 28
19506 24381 24383 28
19507 24381 24384 28
19508 24381 24385 28
19509 24386 24387 28
19510 24386 24388 28
19511 24386 24389 28
19512 24386 24390 28
19513 24391 24392 28
19514 24391 24393 28
19515 24391 24394 28
19516 24391 24395 28
19517 24396 24397 28
19518 24396 24398 28
19519 24396 24399 28
19520 24396 24400 28
19521 24401 24402 28
19522 24401 24403 28
19523 24401 24404 28
19524 24401 24405 28
19525 24406 24407 28
19526 24406 24408 28
19527 24406 24409 28
19528 24406 24410 28
19529 24411 24412 28
19530 24411 24413 28
19531 24411 24414 28
19532 24411 24415 28
19533 24416 24417 28
19534 24416 24418 28
19535 24416 24419 28
19536 24416 24420 28
19537 24421 24422 28
19538 24421 24423 28
19539 24421 24424 28
19540 24421 24425 28
19541 24426 24427 28
19542 24426 24428 28
19543 24426 24429 28
19544 24426 24430 28
19545 24431 24432 28
19546 24431 24433 28
19547 24431 24434 28
19548 24431 24435 28
19549 24436 24437 28
19550 24436 24438 28
19551 24436 24439 28
19552 24436 24440 28
19553 24441 24442 28
19554 24441 24443 28
19555 24441 24444 28
19556 24441 24445 28
19557 24446 24447 28
19558 24446 24448 28
19559 24446 24449 28
19560 24446 24450 28
19561 24451 24452 28
19562 24451 24453 28
19563 24451 24454 28
19564 24451 24455 28
19565 24456 24457 28
19566 24456 24458 28
19567 24456 24459 28
19568 24456 24460 28
19569 24461 24462 28
19570 24461 24463 28
19571 24461 24464 28
19572 24461 24465 28
19573 24466 24467 28
19574 24466 24468 28
19575 24466 24469 28
19576 24466 24470 28
19577 24471 24472 28
19578 24471 24473 28
19579 24471 24474 28
19580 24471 24475 28
19581 24476 24477 28
19582 24476 24478 28
19583 24476 24479 28
19584 24476 24480 28
19585 24481 24482 28
19586 24481 24483 28
19587 24481 24484 28
19588 24481 24485 28
19589 24486 24487 28
19590 24486 24488 28
19591 24486 24489 28
19592 24486 24490 28
19593 24491 24492 28
19594 24491 24493 28
19595 24491 24494 28
19596 24491 24495 28
19597 24496 24497 28
19598 24496 24498 28
19599 24496 24499 28
19600 24496 24500 28
19601 24501 24502 28
19602 24501 24503 28
19603 24501 24504 28
19604 24501 24505 28
19605 24506 24507 28
19606 24506 24508 28
19607 24506 24509 28
19608 24506 24510 28
19609 24511 24512 28
19610 24511 24513 28
19611 24511 24514 28
19612 24511 24515 28
19613 24516 24517 28
19614 24516 24518 28
19615 24516 24519 28
19616 24516 24520 28
19617 24521 24522 28
19618 24521 24523 28
19619 24521 24524 28
19620 24521 24525 28
19621 24526 24527 28
19622 24526 24528 28
19623 24526 24529 28
19624 24526 24530 28
19625 24531 24532 28
19626 24531 24533 28
19627 24531 24534 28
19628 24531 24535 28
19629 24536 24537 28
19630 24536 24538 28
19631 24536 24539 28
19632 24536 24540 28
19633 24541 24542 28
19634 24541 24543 28
19635 24541 24544 28
19636 24541 24545 28
19637 24546 24547 28
19638 24546 24548 28
19639 24546 24549 28
19640 24546 24550 28
19641 24551 24552 28
19642 24551 24553 28
19643 24551 24554 28
19644 24551 24555 28
19645 24556 24557 28
19646 24556 24558 28
19647 24556 24559 28
19648 24556 24560 28
19649 24561 24562 28
19650 24561 24563 28
19651 24561 24564 28
19652 24561 24565 28
19653 24566 24567 28
19654 24566 24568 28
19655 24566 24569 28
19656 24566 24570 28
19657 24571 24572 28
19658 24571 24573 28
19659 24571 24574 28
19660 24571 24575 28
19661 24576 24577 28
19662 24576 24578 28
19663 24576 24579 28
19664 24576 24580 28
19665 24581 24582 28
19666 24581 24583 28
19667 24581 24584 28
19668 24581 24585 28
19669 24586 24587 28
19670 24586 24588 28
19671 24586 24589 28
19672 24586 24590 28
19673 24591 24592 28
19674 24591 24593 28
19675 24591 24594 28
19676 24591 24595 28
19677 24596 24597 28
19678 24596 24598 28
19679 24596 24599 28
19680 24596 24600 28
19681 24601 24602 28
19682 24601 24603 28
19683 24601 24604 28
19684 24601 24605 28
19685 24606 24607 28
19686 24606 24608 28
19687 24606 24609 28
19688 24606 24610 28
19689 24611 24612 28
19690 24611 24613 28
19691 24611 24614 28
19692 24611 24615 28
19693 24616 24617 28
19694 24616 24618 28
19695 24616 24619 28
19696 24616 24620 28
19697 24621 24622 28
19698 24621 24623 28
19699 24621 24624 28
19700 24621 24625 28
19701 24626 24627 28
19702 24626 24628 28
19703 24626 24629 28
19704 24626 24630 28
19705 24631 24632 28
19706 24631 24633 28
19707 24631 24634 28
19708 24631 24635 28
19709 24636 24637 28
19710 24636 24638 28
19711 24636 24639 28
19712 24636 24640 28
19713 24641 24642 28
19714 24641 24643 28
19715 24641 24644 28
19716 24641 24645 28
19717 24646 24647 28
19718 24646 24648 28
19719 24646 24649 28
19720 24646 24650 28
19721 24651 24652 28
19722 24651 24653 28
19723 24651 24654 28
19724 24651 24655 28
19725 24656 24657 28
19726 24656 24658 28
19727 24656 24659 28
19728 24656 24660 28
19729 24661 24662 28
19730 24661 24663 28
19731 24661 24664 28
19732 24661 24665 28
19733 24666 24667 28
19734 24666 24668 28
19735 24666 24669 28
19736 24666 24670 28
19737 24671 24672 28
19738 24671 24673 28
19739 24671 24674 28
19740 24671 24675 28
19741 24676 24677 28
19742 24676 24678 28
19743 24676 24679 28
19744 24676 24680 28
19745 24681 24682 28
19746 24681 24683 28
19747 24681 24684 28
19748 24681 24685 28
19749 24686 24687 28
19750 24686 24688 28
19751 24686 24689 28
19752 24686 24690 28
19753 24691 24692 28
19754 24691 24693 28
19755 24691 24694 28
19756 24691 24695 28
19757 24696 24697 28
19758 24696 24698 28
19759 24696 24699 28
19760 24696 24700 28
19761 24701 24702 28
19762 24701 24703 28
19763 24701 24704 28
19764 24701 24705 28
19765 24706 24707 28
19766 24706 24708 28
19767 24706 24709 28
19768 24706 24710 28
19769 24711 24712 28
19770 24711 24713 28
19771 24711 24714 28
19772 24711 24715 28
19773 24716 24717 28
19774 24716 24718 28
19775 24716 24719 28
19776 24716 24720 28
19777 24721 24722 28
19778 24721 24723 28
19779 24721 24724 28
19780 24721 24725 28
19781 24726 24727 28
19782 24726 24728 28
19783 24726 24729 28
19784 24726 24730 28
19785 24731 24732 28
19786 24731 24733 28
19787 24731 24734 28
19788 24731 24735 28
19789 24736 24737 28
19790 24736 24738 28
19791 24736 24739 28
19792 24736 24740 28
19793 24741 24742 28
19794 24741 24743 28
19795 24741 24744 28
19796 24741 24745 28
19797 24746 24747 28
19798 24746 24748 28
19799 24746 24749 28
19800 24746 24750 28
19801 24751 24752 28
19802 24751 24753 28
19803 24751 24754 28
19804 24751 24755 28
19805 24756 24757 28
19806 24756 24758 28
19807 24756 24759 28
19808 24756 24760 28
19809 24761 24762 28
19810 24761 24763 28
19811 24761 24764 28
19812 24761 24765 28
19813 24766 24767 28
19814 24766 24768 28
19815 24766 24769 28
19816 24766 24770 28
19817 24771 24772 28
19818 24771 24773 28
19819 24771 24774 28
19820 24771 24775 28
19821 24776 24777 28
19822 24776 24778 28
19823 24776 24779 28
19824 24776 24780 28
19825 24781 24782 28
19826 24781 24783 28
19827 24781 24784 28
19828 24781 24785 28
19829 24786 24787 28
19830 24786 24788 28
19831 24786 24789 28
19832 24786 24790 28
19833 24791 24792 28
19834 24791 24793 28
19835 24791 24794 28
19836 24791 24795 28
19837 24796 24797 28
19838 24796 24798 28
19839 24796 24799 28
19840 24796 24800 28
19841 24801 24802 28
19842 24801 24803 28
19843 24801 24804 28
19844 24801 24805 28
19845 24806 24807 28
19846 24806 24808 28
19847 24806 24809 28
19848 24806 24810 28
19849 24811 24812 28
19850 24811 24813 28
19851 24811 24814 28
19852 24811 24815 28
19853 24816 24817 28
19854 24816 24818 28
19855 24816 24819 28
19856 24816 24820 28
19857 24821 24822 28
19858 24821 24823 28
19859 24821 24824 28
19860 24821 24825 28
19861 24826 24827 28
19862 24826 24828 28
19863 24826 24829 28
19864 24826 24830 28
19865 24831 24832 28
19866 24831 24833 28
19867 24831 24834 28
19868 24831 24835 28
19869 24836 24837 28
19870 24836 24838 28
19871 24836 24839 28
19872 24836 24840 28
19873 24841 24842 28
19874 24841 24843 28
19875 24841 24844 28
19876 24841 24845 28
19877 24846 24847 28
19878 24846 24848 28
19879 24846 24849 28
19880 24846 24850 28
19881 24851 24852 28
19882 24851 24853 28
19883 24851 24854 28
19884 24851 24855 28
19885 24856 24857 28
19886 24856 24858 28
19887 24856 24859 28
19888 24856 24860 28
19889 24861 24862 28
19890 24861 24863 28
19891 24861 24864 28
19892 24861 24865 28
19893 24866 24867 28
19894 24866 24868 28
19895 24866 24869 28
19896 24866 24870 28
19897 24871 24872 28
19898 24871 24873 28
19899 24871 24874 28
19900 24871 24875 28
19901 24876 24877 28
19902 24876 24878 28
19903 24876 24879 28
19904 24876 24880 28
19905 24881 24882 28
19906 24881 24883 28
19907 24881 24884 28
19908 24881 24885 28
19909 24886 24887 28
19910 24886 24888 28
19911 24886 24889 28
19912 24886 24890 28
19913 24891 24892 28
19914 24891 24893 28
19915 24891 24894 28
19916 24891 24895 28
19917 24896 24897 28
19918 24896 24898 28
19919 24896 24899 28
19920 24896 24900 28
19921 24901 24902 28
19922 24901 24903 28
19923 24901 24904 28
19924 24901 24905 28
19925 24906 24907 28
19926 24906 24908 28
19927 24906 24909 28
19928 24906 24910 28
19929 24911 24912 28
19930 24911 24913 28
19931 24911 24914 28
19932 24911 24915 28
19933 24916 24917 28
19934 24916 24918 28
19935 24916 24919 28
19936 24916 24920 28
19937 24921 24922 28
19938 24921 24923 28
19939 24921 24924 28
19940 24921 24925 28
19941 24926 24927 28
19942 24926 24928 28
19943 24926 24929 28
19944 24926 24930 28
19945 24931 24932 28
19946 24931 24933 28
19947 24931 24934 28
19948 24931 24935 28
19949 24936 24937 28
19950 24936 24938 28
19951 24936 24939 28
19952 24936 24940 28
19953 24941 24942 28
19954 24941 24943 28
19955 24941 24944 28
19956 24941 24945 28
19957 24946 24947 28
19958 24946 24948 28
19959 24946 24949 28
19960 24946 24950 28
19961 24951 24952 28
19962 24951 24953 28
19963 24951 24954 28
19964 24951 24955 28
19965 24956 24957 28
19966 24956 24958 28
19967 24956 24959 28
19968 24956 24960 28
19969 24961 24962 28
19970 24961 24963 28
19971 24961 24964 28
19972 24961 24965 28
19973 24966 24967 28
19974 24966 24968 28
19975 24966 24969 28
19976 24966 24970 28
19977 24971 24972 28
19978 24971 24973 28
19979 24971 24974 28
19980 24971 24975 28
19981 24976 24977 28
19982 24976 24978 28
19983 24976 24979 28
19984 24976 24980 28
19985 24981 24982 28
19986 24981 24983 28
19987 24981 24984 28
19988 24981 24985 28
19989 24986 24987 28
19990 24986 24988 28
19991 24986 24989 28
19992 24986 24990 28
19993 24991 24992 28
19994 24991 24993 28
19995 24991 24994 28
19996 24991 24995 28
19997 24996 24997 28
19998 24996 24998 28
19999 24996 24999 28
20000 24996 25000 28
20001 25001 25002 28
20002 25001 25003 28
20003 25001 25004 28
20004 25001 25005 28
20005 25006 25007 28
20006 25006 25008 28
20007 25006 25009 28
20008 25006 25010 28
20009 25011 25012 28
20010 25011 25013 28
20011 25011 25014 28
20012 25011 25015 28
20013 25016 25017 28
20014 25016 25018 28
20015 25016 25019 28
20016 25016 25020 28
20017 25021 25022 28
20018 25021 25023 28
20019 25021 25024 28
20020 25021 25025 28
20021 25026 25027 28
20022 25026 25028 28
20023 25026 25029 28
20024 25026 25030 28
20025 25031 25032 28
20026 25031 25033 28
20027 25031 25034 28
20028 25031 25035 28
20029 25036 25037 28
20030 25036 25038 28
20031 25036 25039 28
20032 25036 25040 28
20033 25041 25042 28
20034 25041 25043 28
20035 25041 25044 28
20036 25041 25045 28
20037 25046 25047 28
20038 25046 25048 28
20039 25046 25049 28
20040 25046 25050 28
20041 25051 25052 28
20042 25051 25053 28
20043 25051 25054 28
20044 25051 25055 28
20045 25056 25057 28
20046 25056 25058 28
20047 25056 25059 28
20048 25056 25060 28
20049 25061 25062 28
20050 25061 25063 28
20051 25061 25064 28
20052 25061 25065 28
20053 25066 25067 28
20054 25066 25068 28
20055 25066 25069 28
20056 25066 25070 28
20057 25071 25072 28
20058 25071 25073 28
20059 25071 25074 28
20060 25071 25075 28
20061 25076 25077 28
20062 25076 25078 28
20063 25076 25079 28
20064 25076 25080 28
20065 25081 25082 28
20066 25081 25083 28
20067 25081 25084 28
20068 25081 25085 28
20069 25086 25087 28
20070 25086 25088 28
20071 25086 25089 28
20072 25086 25090 28
20073 25091 25092 28
20074 25091 25093 28
20075 25091 25094 28
20076 25091 25095 28
20077 25096 25097 28
20078 25096 25098 28
20079 25096 25099 28
20080 25096 25100 28
20081 25101 25102 28
20082 25101 25103 28
20083 25101 25104 28
20084 25101 25105 28
20085 25106 25107 28
20086 25106 25108 28
20087 25106 25109 28
20088 25106 25110 28
20089 25111 25112 28
20090 25111 25113 28
20091 25111 25114 28
20092 25111 25115 28
20093 25116 25117 28
20094 25116 25118 28
20095 25116 25119 28
20096 25116 25120 28
20097 25121 25122 28
20098 25121 25123 28
20099 25121 25124 28
20100 25121 25125 28
20101 25126 25127 28
20102 25126 25128 28
20103 25126 25129 28
20104 25126 25130 28
20105 25131 25132 28
20106 25131 25133 28
20107 25131 25134 28
20108 25131 25135 28
20109 25136 25137 28
20110 25136 25138 28
20111 25136 25139 28
20112 25136 25140 28
20113 25141 25142 28
20114 25141 25143 28
20115 25141 25144 28
20116 25141 25145 28
20117 25146 25147 28
20118 25146 25148 28
20119 25146 25149 28
20120 25146 25150 28
20121 25151 25152 28
20122 25151 25153 28
20123 25151 25154 28
20124 25151 25155 28
20125 25156 25157 28
20126 25156 25158 28
20127 25156 25159 28
20128 25156 25160 28
20129 25161 25162 28
20130 25161 25163 28
20131 25161 25164 28
20132 25161 25165 28
20133 25166 25167 28
20134 25166 25168 28
20135 25166 25169 28
20136 25166 25170 28
20137 25171 25172 28
20138 25171 25173 28
20139 25171 25174 28
20140 25171 25175 28
20141 25176 25177 28
20142 25176 25178 28
20143 25176 25179 28
20144 25176 25180 28
20145 25181 25182 28
20146 25181 25183 28
20147 25181 25184 28
20148 25181 25185 28
20149 25186 25187 28
20150 25186 25188 28
20151 25186 25189 28
20152 25186 25190 28
20153 25191 25192 28
20154 25191 25193 28
20155 25191 25194 28
20156 25191 25195 28
20157 25196 25197 28
20158 25196 25198 28
20159 25196 25199 28
20160 25196 25200 28
20161 25201 25202 28
20162 25201 25203 28
20163 25201 25204 28
20164 25201 25205 28
20165 25206 25207 28
20166 25206 25208 28
20167 25206 25209 28
20168 25206 25210 28
20169 25211 25212 28
20170 25211 25213 28
20171 25211 25214 28
20172 25211 25215 28
20173 25216 25217 28
20174 25216 25218 28
20175 25216 25219 28
20176 25216 25220 28
20177 25221 25222 28
20178 25221 25223 28
20179 25221 25224 28
20180 25221 25225 28
20181 25226 25227 28
20182 25226 25228 28
20183 25226 25229 28
20184 25226 25230 28
20185 25231 25232 28
20186 25231 25233 28
20187 25231 25234 28
20188 25231 25235 28
20189 25236 25237 28
20190 25236 25238 28
20191 25236 25239 28
20192 25236 25240 28
20193 25241 25242 28
20194 25241 25243 28
20195 25241 25244 28
20196 25241 25245 28
20197 25246 25247 28
20198 25246 25248 28
20199 25246 25249 28
20200 25246 25250 28
20201 25251 25252 28
20202 25251 25253 28
20203 25251 25254 28
20204 25251 25255 28
20205 25256 25257 28
20206 25256 25258 28
20207 25256 25259 28
20208 25256 25260 28
20209 25261 25262 28
20210 25261 25263 28
20211 25261 25264 28
20212 25261 25265 28
20213 25266 25267 28
20214 25266 25268 28
20215 25266 25269 28
20216 25266 25270 28
20217 25271 25272 28
20218 25271 25273 28
20219 25271 25274 28
20220 25271 25275 28
20221 25276 25277 28
20222 25276 25278 28
20223 25276 25279 28
20224 25276 25280 28
20225 25281 25282 28
20226 25281 25283 28
20227 25281 25284 28
20228 25281 25285 28
20229 25286 25287 28
20230 25286 25288 28
20231 25286 25289 28
20232 25286 25290 28
20233 25291 25292 28
20234 25291 25293 28
20235 25291 25294 28
20236 25291 25295 28
20237 25296 25297 28
20238 25296 25298 28
20239 25296 25299 28
20240 25296 25300 28
20241 25301 25302 28
20242 25301 25303 28
20243 25301 25304 28
20244 25301 25305 28
20245 25306 25307 28
20246 25306 25308 28
20247 25306 25309 28
20248 25306 25310 28
20249 25311 25312 28
20250 25311 25313 28
20251 25311 25314 28
20252 25311 25315 28
20253 25316 25317 28
20254 25316 25318 28
20255 25316 25319 28
20256 25316 25320 28
20257 25321 25322 28
20258 25321 25323 28
20259 25321 25324 28
20260 25321 25325 28
20261 25326 25327 28
20262 25326 25328 28
20263 25326 25329 28
20264 25326 25330 28
20265 25331 25332 28
20266 25331 25333 28
20267 25331 25334 28
20268 25331 25335 28
20269 25336 25337 28
20270 25336 25338 28
20271 25336 25339 28
20272 25336 25340 28
20273 25341 25342 28
20274 25341 25343 28
20275 25341 25344 28
20276 25341 25345 28
20277 25346 25347 28
20278 25346 25348 28
20279 25346 25349 28
20280 25346 25350 28
20281 25351 25352 28
20282 25351 25353 28
20283 25351 25354 28
20284 25351 25355 28
20285 25356 25357 28
20286 25356 25358 28
20287 25356 25359 28
20288 25356 25360 28
20289 25361 25362 28
20290 25361 25363 28
20291 25361 25364 28
20292 25361 25365 28
20293 25366 25367 28
20294 25366 25368 28
20295 25366 25369 28
20296 25366 25370 28
20297 25371 25372 28
20298 25371 25373 28
20299 25371 25374 28
20300 25371 25375 28
20301 25376 25377 28
20302 25376 25378 28
20303 25376 25379 28
20304 25376 25380 28
20305 25381 25382 28
20306 25381 25383 28
20307 25381 25384 28
20308 25381 25385 28
20309 25386 25387 28
20310 25386 25388 28
20311 25386 25389 28
20312 25386 25390 28
20313 25391 25392 28
20314 25391 25393 28
20315 25391 25394 28
20316 25391 25395 28
20317 25396 25397 28
20318 25396 25398 28
20319 25396 25399 28
20320 25396 25400 28
20321 25401 25402 28
20322 25401 25403 28
20323 25401 25404 28
20324 25401 25405 28
20325 25406 25407 28
20326 25406 25408 28
20327 25406 25409 28
20328 25406 25410 28
20329 25411 25412 28
20330 25411 25413 28
20331 25411 25414 28
20332 25411 25415 28
20333 25416 25417 28
20334 25416 25418 28
20335 25416 25419 28
20336 25416 25420 28
20337 25421 25422 28
20338 25421 25423 28
20339 25421 25424 28
20340 25421 25425 28
20341 25426 25427 28
20342 25426 25428 28
20343 25426 25429 28
20344 25426 25430 28
20345 25431 25432 28
20346 25431 25433 28
20347 25431 25434 28
20348 25431 25435 28
20349 25436 25437 28
20350 25436 25438 28
20351 25436 25439 28
20352 25436 25440 28
20353 25441 25442 28
20354 25441 25443 28
20355 25441 25444 28
20356 25441 25445 28
20357 25446 25447 28
20358 25446 25448 28
20359 25446 25449 28
20360 25446 25450 28
20361 25451 25452 28
20362 25451 25453 28
20363 25451 25454 28
20364 25451 25455 28
20365 25456 25457 28
20366 25456 25458 28
20367 25456 25459 28
20368 25456 25460 28
20369 25461 25462 28
20370 25461 25463 28
20371 25461 25464 28
20372 25461 25465 28
20373 25466 25467 28
20374 25466 25468 28
20375 25466 25469 28
20376 25466 25470 28
20377 25471 25472 28
20378 25471 25473 28
20379 25471 25474 28
20380 25471 25475 28
20381 25476 25477 28
20382 25476 25478 28
20383 25476 25479 28
20384 25476 25480 28
20385 25481 25482 28
20386 25481 25483 28
20387 25481 25484 28
20388 25481 25485 28
20389 25486 25487 28
20390 25486 25488 28
20391 25486 25489 28
20392 25486 25490 28
20393 25491 25492 28
20394 25491 25493 28
20395 25491 25494 28
20396 25491 25495 28
20397 25496 25497 28
20398 25496 25498 28
20399 25496 25499 28
20400 25496 25500 28
20401 25501 25502 28
20402 25501 25503 28
20403 25501 25504 28
20404 25501 25505 28
20405 25506 25507 28
20406 25506 25508 28
20407 25506 25509 28
20408 25506 25510 28
20409 25511 25512 28
20410 25511 25513 28
20411 25511 25514 28
20412 25511 25515 28
20413 25516 25517 28
20414 25516 25518 28
20415 25516 25519 28
20416 25516 25520 28
20417 25521 25522 28
20418 25521 25523 28
20419 25521 25524 28
20420 25521 25525 28
20421 25526 25527 28
20422 25526 25528 28
20423 25526 25529 28
20424 25526 25530 28
20425 25531 25532 28
20426 25531 25533 28
20427 25531 25534 28
20428 25531 25535 28
20429 25536 25537 28
20430 25536 25538 28
20431 25536 25539 28
20432 25536 25540 28
20433 25541 25542 28
20434 25541 25543 28
20435 25541 25544 28
20436 25541 25545 28
20437 25546 25547 28
20438 25546 25548 28
20439 25546 25549 28
20440 25546 25550 28
20441 25551 25552 28
20442 25551 25553 28
20443 25551 25554 28
20444 25551 25555 28
20445 25556 25557 28
20446 25556 25558 28
20447 25556 25559 28
20448 25556 25560 28
20449 25561 25562 28
20450 25561 25563 28
20451 25561 25564 28
20452 25561 25565 28
20453 25566 25567 28
20454 25566 25568 28
20455 25566 25569 28
20456 25566 25570 28
20457 25571 25572 28
20458 25571 25573 28
20459 25571 25574 28
20460 25571 25575 28
20461 25576 25577 28
20462 25576 25578 28
20463 25576 25579 28
20464 25576 25580 28
20465 25581 25582 28
20466 25581 25583 28
20467 25581 25584 28
20468 25581 25585 28
20469 25586 25587 28
20470 25586 25588 28
20471 25586 25589 28
20472 25586 25590 28
20473 25591 25592 28
20474 25591 25593 28
20475 25591 25594 28
20476 25591 25595 28
20477 25596 25597 28
20478 25596 25598 28
20479 25596 25599 28
20480 25596 25600 28
20481 25601 25602 28
20482 25601 25603 28
20483 25601 25604 28
20484 25601 25605 28
20485 25606 25607 28
20486 25606 25608 28
20487 25606 25609 28
20488 25606 25610 28
20489 25611 25612 28
20490 25611 25613 28
20491 25611 25614 28
20492 25611 25615 28
20493 25616 25617 28
20494 25616 25618 28
20495 25616 25619 28
20496 25616 25620 28
20497 25621 25622 28
20498 25621 25623 28
20499 25621 25624 28
20500 25621 25625 28
20501 25626 25627 28
20502 25626 25628 28
20503 25626 25629 28
20504 25626 25630 28
20505 25631 25632 28
20506 25631 25633 28
20507 25631 25634 28
20508 25631 25635 28
20509 25636 25637 28
20510 25636 25638 28
20511 25636 25639 28
20512 25636 25640 28
20513 25641 25642 28
20514 25641 25643 28
20515 25641 25644 28
20516 25641 25645 28
20517 25646 25647 28
20518 25646 25648 28
20519 25646 25649 28
20520 25646 25650 28
20521 25651 25652 28
20522 25651 25653 28
20523 25651 25654 28
20524 25651 25655 28
20525 25656 25657 28
20526 25656 25658 28
20527 25656 25659 28
20528 25656 25660 28
20529 25661 25662 28
20530 25661 25663 28
20531 25661 25664 28
20532 25661 25665 28
20533 25666 25667 28
20534 25666 25668 28
20535 25666 25669 28
20536 25666 25670 28
20537 25671 25672 28
20538 25671 25673 28
20539 25671 25674 28
20540 25671 25675 28
20541 25676 25677 28
20542 25676 25678 28
20543 25676 25679 28
20544 25676 25680 28
20545 25681 25682 28
20546 25681 25683 28
20547 25681 25684 28
20548 25681 25685 28
20549 25686 25687 28
20550 25686 25688 28
20551 25686 25689 28
20552 25686 25690 28
20553 25691 25692 28
20554 25691 25693 28
20555 25691 25694 28
20556 25691 25695 28
20557 25696 25697 28
20558 25696 25698 28
20559 25696 25699 28
20560 25696 25700 28
20561 25701 25702 28
20562 25701 25703 28
20563 25701 25704 28
20564 25701 25705 28
20565 25706 25707 28
20566 25706 25708 28
20567 25706 25709 28
20568 25706 25710 28
20569 25711 25712 28
20570 25711 25713 28
20571 25711 25714 28
20572 25711 25715 28
20573 25716 25717 28
20574 25716 25718 28
20575 25716 25719 28
20576 25716 25720 28
20577 25721 25722 28
20578 25721 25723 28
20579 25721 25724 28
20580 25721 25725 28
20581 25726 25727 28
20582 25726 25728 28
20583 25726 25729 28
20584 25726 25730 28
20585 25731 25732 28
20586 25731 25733 28
20587 25731 25734 28
20588 25731 25735 28
20589 25736 25737 28
20590 25736 25738 28
20591 25736 25739 28
20592 25736 25740 28
20593 25741 25742 28
20594 25741 25743 28
20595 25741 25744 28
20596 25741 25745 28
20597 25746 25747 28
20598 25746 25748 28
20599 25746 25749 28
20600 25746 25750 28
20601 25751 25752 28
20602 25751 25753 28
20603 25751 25754 28
20604 25751 25755 28
20605 25756 25757 28
20606 25756 25758 28
20607 25756 25759 28
20608 25756 25760 28
20609 25761 25762 28
20610 25761 25763 28
20611 25761 25764 28
20612 25761 25765 28
20613 25766 25767 28
20614 25766 25768 28
20615 25766 25769 28
20616 25766 25770 28
20617 25771 25772 28
20618 25771 25773 28
20619 25771 25774 28
20620 25771 25775 28
20621 25776 25777 28
20622 25776 25778 28
20623 25776 25779 28
20624 25776 25780 28
20625 25781 25782 28
20626 25781 25783 28
20627 25781 25784 28
20628 25781 25785 28
20629 25786 25787 28
20630 25786 25788 28
20631 25786 25789 28
20632 25786 25790 28
20633 25791 25792 28
20634 25791 25793 28
20635 25791 25794 28
20636 25791 25795 28
20637 25796 25797 28
20638 25796 25798 28
20639 25796 25799 28
20640 25796 25800 28
20641 25801 25802 28
20642 25801 25803 28
20643 25801 25804 28
20644 25801 25805 28
20645 25806 25807 28
20646 25806 25808 28
20647 25806 25809 28
20648 25806 25810 28
20649 25811 25812 28
20650 25811 25813 28
20651 25811 25814 28
20652 25811 25815 28
20653 25816 25817 28
20654 25816 25818 28
20655 25816 25819 28
20656 25816 25820 28
20657 25821 25822 28
20658 25821 25823 28
20659 25821 25824 28
20660 25821 25825 28
20661 25826 25827 28
20662 25826 25828 28
20663 25826 25829 28
20664 25826 25830 28
20665 25831 25832 28
20666 25831 25833 28
20667 25831 25834 28
20668 25831 25835 28
20669 25836 25837 28
20670 25836 25838 28
20671 25836 25839 28
20672 25836 25840 28
20673 25841 25842 28
20674 25841 25843 28
20675 25841 25844 28
20676 25841 25845 28
20677 25846 25847 28
20678 25846 25848 28
20679 25846 25849 28
20680 25846 25850 28
20681 25851 25852 28
20682 25851 25853 28
20683 25851 25854 28
20684 25851 25855 28
20685 25856 25857 28
20686 25856 25858 28
20687 25856 25859 28
20688 25856 25860 28
20689 25861 25862 28
20690 25861 25863 28
20691 25861 25864 28
20692 25861 25865 28
20693 25866 25867 28
20694 25866 25868 28
20695 25866 25869 28
20696 25866 25870 28
20697 25871 25872 28
20698 25871 25873 28
20699 25871 25874 28
20700 25871 25875 28
20701 25876 25877 28
20702 25876 25878 28
20703 25876 25879 28
20704 25876 25880 28
20705 25881 25882 28
20706 25881 25883 28
20707 25881 25884 28
20708 25881 25885 28
20709 25886 25887 28
20710 25886 25888 28
20711 25886 25889 28
20712 25886 25890 28
20713 25891 25892 28
20714 25891 25893 28
20715 25891 25894 28
20716 25891 25895 28
20717 25896 25897 28
20718 25896 25898 28
20719 25896 25899 28
20720 25896 25900 28
20721 25901 25902 28
20722 25901 25903 28
20723 25901 25904 28
20724 25901 25905 28
20725 25906 25907 28
20726 25906 25908 28
20727 25906 25909 28
20728 25906 25910 28
20729 25911 25912 28
20730 25911 25913 28
20731 25911 25914 28
20732 25911 25915 28
20733 25916 25917 28
20734 25916 25918 28
20735 25916 25919 28
20736 25916 25920 28
20737 25921 25922 28
20738 25921 25923 28
20739 25921 25924 28
20740 25921 25925 28
20741 25926 25927 28
20742 25926 25928 28
20743 25926 25929 28
20744 25926 25930 28
20745 25931 25932 28
20746 25931 25933 28
20747 25931 25934 28
20748 25931 25935 28
20749 25936 25937 28
20750 25936 25938 28
20751 25936 25939 28
20752 25936 25940 28
20753 25941 25942 28
20754 25941 25943 28
20755 25941 25944 28
20756 25941 25945 28
20757 25946 25947 28
20758 25946 25948 28
20759 25946 25949 28
20760 25946 25950 28
20761 25951 25952 28
20762 25951 25953 28
20763 25951 25954 28
20764 25951 25955 28
20765 25956 25957 28
20766 25956 25958 28
20767 25956 25959 28
20768 25956 25960 28
20769 25961 25962 28
20770 25961 25963 28
20771 25961 25964 28
20772 25961 25965 28
20773 25966 25967 28
20774 25966 25968 28
20775 25966 25969 28
20776 25966 25970 28
20777 25971 25972 28
20778 25971 25973 28
20779 25971 25974 28
20780 25971 25975 28
20781 25976 25977 28
20782 25976 25978 28
20783 25976 25979 28
20784 25976 25980 28
20785 25981 25982 28
20786 25981 25983 28
20787 25981 25984 28
20788 25981 25985 28
20789 25986 25987 28
20790 25986 25988 28
20791 25986 25989 28
20792 25986 25990 28
20793 25991 25992 28
20794 25991 25993 28
20795 25991 25994 28
20796 25991 25995 28
20797 25996 25997 28
20798 25996 25998 28
20799 25996 25999 28
20800 25996 26000 28
20801 26001 26002 28
20802 26001 26003 28
20803 26001 26004 28
20804 26001 26005 28
20805 26006 26007 28
20806 26006 26008 28
20807 26006 26009 28
20808 26006 26010 28
20809 26011 26012 28
20810 26011 26013 28
20811 26011 26014 28
20812 26011 26015 28
20813 26016 26017 28
20814 26016 26018 28
20815 26016 26019 28
20816 26016 26020 28
20817 26021 26022 28
20818 26021 26023 28
20819 26021 26024 28
20820 26021 26025 28
20821 26026 26027 28
20822 26026 26028 28
20823 26026 26029 28
20824 26026 26030 28
20825 26031 26032 28
20826 26031 26033 28
20827 26031 26034 28
20828 26031 26035 28
20829 26036 26037 28
20830 26036 26038 28
20831 26036 26039 28
20832 26036 26040 28
20833 26041 26042 28
20834 26041 26043 28
20835 26041 26044 28
20836 26041 26045 28
20837 26046 26047 28
20838 26046 26048 28
20839 26046 26049 28
20840 26046 26050 28
20841 26051 26052 28
20842 26051 26053 28
20843 26051 26054 28
20844 26051 26055 28
20845 26056 26057 28
20846 26056 26058 28
20847 26056 26059 28
20848 26056 26060 28
20849 26061 26062 28
20850 26061 26063 28
20851 26061 26064 28
20852 26061 26065 28
20853 26066 26067 28
20854 26066 26068 28
20855 26066 26069 28
20856 26066 26070 28
20857 26071 26072 28
20858 26071 26073 28
20859 26071 26074 28
20860 26071 26075 28
20861 26076 26077 28
20862 26076 26078 28
20863 26076 26079 28
20864 26076 26080 28
20865 26081 26082 28
20866 26081 26083 28
20867 26081 26084 28
20868 26081 26085 28
20869 26086 26087 28
20870 26086 26088 28
20871 26086 26089 28
20872 26086 26090 28
20873 26091 26092 28
20874 26091 26093 28
20875 26091 26094 28
20876 26091 26095 28
20877 26096 26097 28
20878 26096 26098 28
20879 26096 26099 28
20880 26096 26100 28
20881 26101 26102 28
20882 26101 26103 28
20883 26101 26104 28
20884 26101 26105 28
20885 26106 26107 28
20886 26106 26108 28
20887 26106 26109 28
20888 26106 26110 28
20889 26111 26112 28
20890 26111 26113 28
20891 26111 26114 28
20892 26111 26115 28
20893 26116 26117 28
20894 26116 26118 28
20895 26116 26119 28
20896 26116 26120 28
20897 26121 26122 28
20898 26121 26123 28
20899 26121 26124 28
20900 26121 26125 28
20901 26126 26127 28
20902 26126 26128 28
20903 26126 26129 28
20904 26126 26130 28
20905 26131 26132 28
20906 26131 26133 28
20907 26131 26134 28
20908 26131 26135 28
20909 26136 26137 28
20910 26136 26138 28
20911 26136 26139 28
20912 26136 26140 28
20913 26141 26142 28
20914 26141 26143 28
20915 26141 26144 28
20916 26141 26145 28
20917 26146 26147 28
20918 26146 26148 28
20919 26146 26149 28
20920 26146 26150 28
20921 26151 26152 28
20922 26151 26153 28
20923 26151 26154 28
20924 26151 26155 28
20925 26156 26157 28
20926 26156 26158 28
20927 26156 26159 28
20928 26156 26160 28
20929 26161 26162 28
20930 26161 26163 28
20931 26161 26164 28
20932 26161 26165 28
20933 26166 26167 28
20934 26166 26168 28
20935 26166 26169 28
20936 26166 26170 28
20937 26171 26172 28
20938 26171 26173 28
20939 26171 26174 28
20940 26171 26175 28
20941 26176 26177 28
20942 26176 26178 28
20943 26176 26179 28
20944 26176 26180 28
20945 26181 26182 28
20946 26181 26183 28
20947 26181 26184 28
20948 26181 26185 28
20949 26186 26187 28
20950 26186 26188 28
20951 26186 26189 28
20952 26186 26190 28
20953 26191 26192 28
20954 26191 26193 28
20955 26191 26194 28
20956 26191 26195 28
20957 26196 26197 28
20958 26196 26198 28
20959 26196 26199 28
20960 26196 26200 28
20961 26201 26202 28
20962 26201 26203 28
20963 26201 26204 28
20964 26201 26205 28
20965 26206 26207 28
20966 26206 26208 28
20967 26206 26209 28
20968 26206 26210 28
20969 26211 26212 28
20970 26211 26213 28
20971 26211 26214 28
20972 26211 26215 28
20973 26216 26217 28
20974 26216 26218 28
20975 26216 26219 28
20976 26216 26220 28
20977 26221 26222 28
20978 26221 26223 28
20979 26221 26224 28
20980 26221 26225 28
20981 26226 26227 28
20982 26226 26228 28
20983 26226 26229 28
20984 26226 26230 28
20985 26231 26232 28
20986 26231 26233 28
20987 26231 26234 28
20988 26231 26235 28
20989 26236 26237 28
20990 26236 26238 28
20991 26236 26239 28
20992 26236 26240 28
20993 26241 26242 28
20994 26241 26243 28
20995 26241 26244 28
20996 26241 26245 28
20997 26246 26247 28
20998 26246 26248 28
20999 26246 26249 28
21000 26246 26250 28
21001 26251 26252 28
21002 26251 26253 28
21003 26251 26254 28
21004 26251 26255 28
21005 26256 26257 28
21006 26256 26258 28
21007 26256 26259 28
21008 26256 26260 28
21009 26261 26262 28
21010 26261 26263 28
21011 26261 26264 28
21012 26261 26265 28
21013 26266 26267 28
21014 26266 26268 28
21015 26266 26269 28
21016 26266 26270 28
21017 26271 26272 28
21018 26271 26273 28
21019 26271 26274 28
21020 26271 26275 28
21021 26276 26277 28
21022 26276 26278 28
21023 26276 26279 28
21024 26276 26280 28
21025 26281 26282 28
21026 26281 26283 28
21027 26281 26284 28
21028 26281 26285 28
21029 26286 26287 28
21030 26286 26288 28
21031 26286 26289 28
21032 26286 26290 28
21033 26291 26292 28
21034 26291 26293 28
21035 26291 26294 28
21036 26291 26295 28
21037 26296 26297 28
21038 26296 26298 28
21039 26296 26299 28
21040 26296 26300 28
21041 26301 26302 28
21042 26301 26303 28
21043 26301 26304 28
21044 26301 26305 28
21045 26306 26307 28
21046 26306 26308 28
21047 26306 26309 28
21048 26306 26310 28
21049 26311 26312 28
21050 26311 26313 28
21051 26311 26314 28
21052 26311 26315 28
21053 26316 26317 28
21054 26316 26318 28
21055 26316 26319 28
21056 26316 26320 28
21057 26321 26322 28
21058 26321 26323 28
21059 26321 26324 28
21060 26321 26325 28
21061 26326 26327 28
21062 26326 26328 28
21063 26326 26329 28
21064 26326 26330 28
21065 26331 26332 28
21066 26331 26333 28
21067 26331 26334 28
21068 26331 26335 28
21069 26336 26337 28
21070 26336 26338 28
21071 26336 26339 28
21072 26336 26340 28
21073 26341 26342 28
21074 26341 26343 28
21075 26341 26344 28
21076 26341 26345 28
21077 26346 26347 28
21078 26346 26348 28
21079 26346 26349 28
21080 26346 26350 28
21081 26351 26352 28
21082 26351 26353 28
21083 26351 26354 28
21084 26351 26355 28
21085 26356 26357 28
21086 26356 26358 28
21087 26356 26359 28
21088 26356 26360 28
21089 26361 26362 28
21090 26361 26363 28
21091 26361 26364 28
21092 26361 26365 28
21093 26366 26367 28
21094 26366 26368 28
21095 26366 26369 28
21096 26366 26370 28
21097 26371 26372 28
21098 26371 26373 28
21099 26371 26374 28
21100 26371 26375 28
21101 26376 26377 28
21102 26376 26378 28
21103 26376 26379 28
21104 26376 26380 28
21105 26381 26382 28
21106 26381 26383 28
21107 26381 26384 28
21108 26381 26385 28
21109 26386 26387 28
21110 26386 26388 28
21111 26386 26389 28
21112 26386 26390 28
21113 26391 26392 28
21114 26391 26393 28
21115 26391 26394 28
21116 26391 26395 28
21117 26396 26397 28
21118 26396 26398 28
21119 26396 26399 28
21120 26396 26400 28
21121 26401 26402 28
21122 26401 26403 28
21123 26401 26404 28
21124 26401 26405 28
21125 26406 26407 28
21126 26406 26408 28
21127 26406 26409 28
21128 26406 26410 28
21129 26411 26412 28
21130 26411 26413 28
21131 26411 26414 28
21132 26411 26415 28
21133 26416 26417 28
21134 26416 26418 28
21135 26416 26419 28
21136 26416 26420 28
21137 26421 26422 28
21138 26421 26423 28
21139 26421 26424 28
21140 26421 26425 28
21141 26426 26427 28
21142 26426 26428 28
21143 26426 26429 28
21144 26426 26430 28
21145 26431 26432 28
21146 26431 26433 28
21147 26431 26434 28
21148 26431 26435 28
21149 26436 26437 28
21150 26436 26438 28
21151 26436 26439 28
21152 26436 26440 28
21153 26441 26442 28
21154 26441 26443 28
21155 26441 26444 28
21156 26441 26445 28
21157 26446 26447 28
21158 26446 26448 28
21159 26446 26449 28
21160 26446 26450 28
21161 26451 26452 28
21162 26451 26453 28
21163 26451 26454 28
21164 26451 26455 28
21165 26456 26457 28
21166 26456 26458 28
21167 26456 26459 28
21168 26456 26460 28
21169 26461 26462 28
21170 26461 26463 28
21171 26461 26464 28
21172 26461 26465 28
21173 26466 26467 28
21174 26466 26468 28
21175 26466 26469 28
21176 26466 26470 28
21177 26471 26472 28
21178 26471 26473 28
21179 26471 26474 28
21180 26471 26475 28
21181 26476 26477 28
21182 26476 26478 28
21183 26476 26479 28
21184 26476 26480 28
21185 26481 26482 28
21186 26481 26483 28
21187 26481 26484 28
21188 26481 26485 28
21189 26486 26487 28
21190 26486 26488 28
21191 26486 26489 28
21192 26486 26490 28
21193 26491 26492 28
21194 26491 26493 28
21195 26491 26494 28
21196 26491 26495 28
21197 26496 26497 28
21198 26496 26498 28
21199 26496 26499 28
21200 26496 26500 28
21201 26501 26502 28
21202 26501 26503 28
21203 26501 26504 28
21204 26501 26505 28
21205 26506 26507 28
21206 26506 26508 28
21207 26506 26509 28
21208 26506 26510 28
21209 26511 26512 28
21210 26511 26513 28
21211 26511 26514 28
21212 26511 26515 28
21213 26516 26517 28
21214 26516 26518 28
21215 26516 26519 28
21216 26516 26520 28
21217 26521 26522 28
21218 26521 26523 28
21219 26521 26524 28
21220 26521 26525 28
21221 26526 26527 28
21222 26526 26528 28
21223 26526 26529 28
21224 26526 26530 28
21225 26531 26532 28
21226 26531 26533 28
21227 26531 26534 28
21228 26531 26535 28
21229 26536 26537 28
21230 26536 26538 28
21231 26536 26539 28
21232 26536 26540 28
21233 26541 26542 28
21234 26541 26543 28
21235 26541 26544 28
21236 26541 26545 28
21237 26546 26547 28
21238 26546 26548 28
21239 26546 26549 28
21240 26546 26550 28
21241 26551 26552 28
21242 26551 26553 28
21243 26551 26554 28
21244 26551 26555 28
21245 26556 26557 28
21246 26556 26558 28
21247 26556 26559 28
21248 26556 26560 28
21249 26561 26562 28
21250 26561 26563 28
21251 26561 26564 28
21252 26561 26565 28
21253 26566 26567 28
21254 26566 26568 28
21255 26566 26569 28
21256 26566 26570 28
21257 26571 26572 28
21258 26571 26573 28
21259 26571 26574 28
21260 26571 26575 28
21261 26576 26577 28
21262 26576 26578 28
21263 26576 26579 28
21264 26576 26580 28
21265 26581 26582 28
21266 26581 26583 28
21267 26581 26584 28
21268 26581 26585 28
21269 26586 26587 28
21270 26586 26588 28
21271 26586 26589 28
21272 26586 26590 28
21273 26591 26592 28
21274 26591 26593 28
21275 26591 26594 28
21276 26591 26595 28
21277 26596 26597 28
21278 26596 26598 28
21279 26596 26599 28
21280 26596 26600 28
21281 26601 26602 28
21282 26601 26603 28
21283 26601 26604 28
21284 26601 26605 28
21285 26606 26607 28
21286 26606 26608 28
21287 26606 26609 28
21288 26606 26610 28
21289 26611 26612 28
21290 26611 26613 28
21291 26611 26614 28
21292 26611 26615 28
21293 26616 26617 28
21294 26616 26618 28
21295 26616 26619 28
21296 26616 26620 28
21297 26621 26622 28
21298 26621 26623 28
21299 26621 26624 28
21300 26621 26625 28
21301 26626 26627 28
21302 26626 26628 28
21303 26626 26629 28
21304 26626 26630 28
21305 26631 26632 28
21306 26631 26633 28
21307 26631 26634 28
21308 26631 26635 28
21309 26636 26637 28
21310 26636 26638 28
21311 26636 26639 28
21312 26636 26640 28
21313 26641 26642 28
21314 26641 26643 28
21315 26641 26644 28
21316 26641 26645 28
21317 26646 26647 28
21318 26646 26648 28
21319 26646 26649 28
21320 26646 26650 28
21321 26651 26652 28
21322 26651 26653 28
21323 26651 26654 28
21324 26651 26655 28
21325 26656 26657 28
21326 26656 26658 28
21327 26656 26659 28
21328 26656 26660 28
21329 26661 26662 28
21330 26661 26663 28
21331 26661 26664 28
21332 26661 26665 28
21333 26666 26667 28
21334 26666 26668 28
21335 26666 26669 28
21336 26666 26670 28
21337 26671 26672 28
21338 26671 26673 28
21339 26671 26674 28
21340 26671 26675 28
21341 26676 26677 28
21342 26676 26678 28
21343 26676 26679 28
21344 26676 26680 28
21345 26681 26682 28
21346 26681 26683 28
21347 26681 26684 28
21348 26681 26685 28
21349 26686 26687 28
21350 26686 26688 28
21351 26686 26689 28
21352 26686 26690 28
21353 26691 26692 28
21354 26691 26693 28
21355 26691 26694 28
21356 26691 26695 28
21357 26696 26697 28
21358 26696 26698 28
21359 26696 26699 28
21360 26696 26700 28
21361 26701 26702 28
21362 26701 26703 28
21363 26701 26704 28
21364 26701 26705 28
21365 26706 26707 28
21366 26706 26708 28
21367 26706 26709 28
21368 26706 26710 28
21369 26711 26712 28
21370 26711 26713 28
21371 26711 26714 28
21372 26711 26715 28
21373 26716 26717 28
21374 26716 26718 28
21375 26716 26719 28
21376 26716 26720 28
21377 26721 26722 28
21378 26721 26723 28
21379 26721 26724 28
21380 26721 26725 28
21381 26726 26727 28
21382 26726 26728 28
21383 26726 26729 28
21384 26726 26730 28
21385 26731 26732 28
21386 26731 26733 28
21387 26731 26734 28
21388 26731 26735 28
21389 26736 26737 28
21390 26736 26738 28
21391 26736 26739 28
21392 26736 26740 28
21393 26741 26742 28
21394 26741 26743 28
21395 26741 26744 28
21396 26741 26745 28
21397 26746 26747 28
21398 26746 26748 28
21399 26746 26749 28
21400 26746 26750 28
21401 26751 26752 28
21402 26751 26753 28
21403 26751 26754 28
21404 26751 26755 28
21405 26756 26757 28
21406 26756 26758 28
21407 26756 26759 28
21408 26756 26760 28
21409 26761 26762 28
21410 26761 26763 28
21411 26761 26764 28
21412 26761 26765 28
21413 26766 26767 28
21414 26766 26768 28
21415 26766 26769 28
21416 26766 26770 28
21417 26771 26772 28
21418 26771 26773 28
21419 26771 26774 28
21420 26771 26775 28
21421 26776 26777 28
21422 26776 26778 28
21423 26776 26779 28
21424 26776 26780 28
21425 26781 26782 28
21426 26781 26783 28
21427 26781 26784 28
21428 26781 26785 28
21429 26786 26787 28
21430 26786 26788 28
21431 26786 26789 28
21432 26786 26790 28
21433 26791 26792 28
21434 26791 26793 28
21435 26791 26794 28
21436 26791 26795 28
21437 26796 26797 28
21438 26796 26798 28
21439 26796 26799 28
21440 26796 26800 28
21441 26801 26802 28
21442 26801 26803 28
21443 26801 26804 28
21444 26801 26805 28
21445 26806 26807 28
21446 26806 26808 28
21447 26806 26809 28
21448 26806 26810 28
21449 26811 26812 28
21450 26811 26813 28
21451 26811 26814 28
21452 26811 26815 28
21453 26816 26817 28
21454 26816 26818 28
21455 26816 26819 28
21456 26816 26820 28
21457 26821 26822 28
21458 26821 26823 28
21459 26821 26824 28
21460 26821 26825 28
21461 26826 26827 28
21462 26826 26828 28
21463 26826 26829 28
21464 26826 26830 28
21465 26831 26832 28
21466 26831 26833 28
21467 26831 26834 28
21468 26831 26835 28
21469 26836 26837 28
21470 26836 26838 28
21471 26836 26839 28
21472 26836 26840 28
21473 26841 26842 28
21474 26841 26843 28
21475 26841 26844 28
21476 26841 26845 28
21477 26846 26847 28
21478 26846 26848 28
21479 26846 26849 28
21480 26846 26850 28
21481 26851 26852 28
21482 26851 26853 28
21483 26851 26854 28
21484 26851 26855 28
21485 26856 26857 28
21486 26856 26858 28
21487 26856 26859 28
21488 26856 26860 28
21489 26861 26862 28
21490 26861 26863 28
21491 26861 26864 28
21492 26861 26865 28
21493 26866 26867 28
21494 26866 26868 28
21495 26866 26869 28
21496 26866 26870 28
21497 26871 26872 28
21498 26871 26873 28
21499 26871 26874 28
21500 26871 26875 28
21501 26876 26877 28
21502 26876 26878 28
21503 26876 26879 28
21504 26876 26880 28
21505 26881 26882 28
21506 26881 26883 28
21507 26881 26884 28
21508 26881 26885 28
21509 26886 26887 28
21510 26886 26888 28
21511 26886 26889 28
21512 26886 26890 28
21513 26891 26892 28
21514 26891 26893 28
21515 26891 26894 28
21516 26891 26895 28
21517 26896 26897 28
21518 26896 26898 28
21519 26896 26899 28
21520 26896 26900 28
21521 26901 26902 28
21522 26901 26903 28
21523 26901 26904 28
21524 26901 26905 28
21525 26906 26907 28
21526 26906 26908 28
21527 26906 26909 28
21528 26906 26910 28
21529 26911 26912 28
21530 26911 26913 28
21531 26911 26914 28
21532 26911 26915 28
21533 26916 26917 28
21534 26916 26918 28
21535 26916 26919 28
21536 26916 26920 28
21537 26921 26922 28
21538 26921 26923 28
21539 26921 26924 28
21540 26921 26925 28
21541 26926 26927 28
21542 26926 26928 28
21543 26926 26929 28
21544 26926 26930 28
21545 26931 26932 28
21546 26931 26933 28
21547 26931 26934 28
21548 26931 26935 28
21549 26936 26937 28
21550 26936 26938 28
21551 26936 26939 28
21552 26936 26940 28
21553 26941 26942 28
21554 26941 26943 28
21555 26941 26944 28
21556 26941 26945 28
21557 26946 26947 28
21558 26946 26948 28
21559 26946 26949 28
21560 26946 26950 28
21561 26951 26952 28
21562 26951 26953 28
21563 26951 26954 28
21564 26951 26955 28
21565 26956 26957 28
21566 26956 26958 28
21567 26956 26959 28
21568 26956 26960 28
21569 26961 26962 28
21570 26961 26963 28
21571 26961 26964 28
21572 26961 26965 28
21573 26966 26967 28
21574 26966 26968 28
21575 26966 26969 28
21576 26966 26970 28
21577 26971 26972 28
21578 26971 26973 28
21579 26971 26974 28
21580 26971 26975 28
21581 26976 26977 28
21582 26976 26978 28
21583 26976 26979 28
21584 26976 26980 28
21585 26981 26982 28
21586 26981 26983 28
21587 26981 26984 28
21588 26981 26985 28
21589 26986 26987 28
21590 26986 26988 28
21591 26986 26989 28
21592 26986 26990 28
21593 26991 26992 28
21594 26991 26993 28
21595 26991 26994 28
21596 26991 26995 28
21597 26996 26997 28
21598 26996 26998 28
21599 26996 26999 28
21600 26996 27000 28
21601 27001 27002 28
21602 27001 27003 28
21603 27001 27004 28
21604 27001 27005 28
21605 27006 27007 28
21606 27006 27008 28
21607 27006 27009 28
21608 27006 27010 28
21609 27011 27012 28
21610 27011 27013 28
21611 27011 27014 28
21612 27011 27015 28
21613 27016 27017 28
21614 27016 27018 28
21615 27016 27019 28
21616 27016 27020 28
21617 27021 27022 28
21618 27021 27023 28
21619 27021 27024 28
21620 27021 27025 28
21621 27026 27027 28
21622 27026 27028 28
21623 27026 27029 28
21624 27026 27030 28
21625 27031 27032 28
21626 27031 27033 28
21627 27031 27034 28
21628 27031 27035 28
21629 27036 27037 28
21630 27036 27038 28
21631 27036 27039 28
21632 27036 27040 28
21633 27041 27042 28
21634 27041 27043 28
21635 27041 27044 28
21636 27041 27045 28
21637 27046 27047 28
21638 27046 27048 28
21639 27046 27049 28
21640 27046 27050 28
21641 27051 27052 28
21642 27051 27053 28
21643 27051 27054 28
21644 27051 27055 28
21645 27056 27057 28
21646 27056 27058 28
21647 27056 27059 28
21648 27056 27060 28
21649 27061 27062 28
21650 27061 27063 28
21651 27061 27064 28
21652 27061 27065 28
21653 27066 27067 28
21654 27066 27068 28
21655 27066 27069 28
21656 27066 27070 28
21657 27071 27072 28
21658 27071 27073 28
21659 27071 27074 28
21660 27071 27075 28
21661 27076 27077 28
21662 27076 27078 28
21663 27076 27079 28
21664 27076 27080 28
21665 27081 27082 28
21666 27081 27083 28
21667 27081 27084 28
21668 27081 27085 28
21669 27086 27087 28
21670 27086 27088 28
21671 27086 27089 28
21672 27086 27090 28
21673 27091 27092 28
21674 27091 27093 28
21675 27091 27094 28
21676 27091 27095 28
21677 27096 27097 28
21678 27096 27098 28
21679 27096 27099 28
21680 27096 27100 28
21681 27101 27102 28
21682 27101 27103 28
21683 27101 27104 28
21684 27101 27105 28
21685 27106 27107 28
21686 27106 27108 28
21687 27106 27109 28
21688 27106 27110 28
21689 27111 27112 28
21690 27111 27113 28
21691 27111 27114 28
21692 27111 27115 28
21693 27116 27117 28
21694 27116 27118 28
21695 27116 27119 28
21696 27116 27120 28
21697 27121 27122 28
21698 27121 27123 28
21699 27121 27124 28
21700 27121 27125 28
21701 27126 27127 28
21702 27126 27128 28
21703 27126 27129 28
21704 27126 27130 28
21705 27131 27132 28
21706 27131 27133 28
21707 27131 27134 28
21708 27131 27135 28
21709 27136 27137 28
21710 27136 27138 28
21711 27136 27139 28
21712 27136 27140 28
21713 27141 27142 28
21714 27141 27143 28
21715 27141 27144 28
21716 27141 27145 28
21717 27146 27147 28
21718 27146 27148 28
21719 27146 27149 28
21720 27146 27150 28
21721 27151 27152 28
21722 27151 27153 28
21723 27151 27154 28
21724 27151 27155 28
21725 27156 27157 28
21726 27156 27158 28
21727 27156 27159 28
21728 27156 27160 28
21729 27161 27162 28
21730 27161 27163 28
21731 27161 27164 28
21732 27161 27165 28
21733 27166 27167 28
21734 27166 27168 28
21735 27166 27169 28
21736 27166 27170 28
21737 27171 27172 28
21738 27171 27173 28
21739 27171 27174 28
21740 27171 27175 28
21741 27176 27177 28
21742 27176 27178 28
21743 27176 27179 28
21744 27176 27180 28
21745 27181 27182 28
21746 27181 27183 28
21747 27181 27184 28
21748 27181 27185 28
21749 27186 27187 28
21750 27186 27188 28
21751 27186 27189 28
21752 27186 27190 28
21753 27191 27192 28
21754 27191 27193 28
21755 27191 27194 28
21756 27191 27195 28
21757 27196 27197 28
21758 27196 27198 28
21759 27196 27199 28
21760 27196 27200 28
21761 27201 27202 28
21762 27201 27203 28
21763 27201 27204 28
21764 27201 27205 28
21765 27206 27207 28
21766 27206 27208 28
21767 27206 27209 28
21768 27206 27210 28
21769 27211 27212 28
21770 27211 27213 28
21771 27211 27214 28
21772 27211 27215 28
21773 27216 27217 28
21774 27216 27218 28
21775 27216 27219 28
21776 27216 27220 28
21777 27221 27222 28
21778 27221 27223 28
21779 27221 27224 28
21780 27221 27225 28
21781 27226 27227 28
21782 27226 27228 28
21783 27226 27229 28
21784 27226 27230 28
21785 27231 27232 28
21786 27231 27233 28
21787 27231 27234 28
21788 27231 27235 28
21789 27236 27237 28
21790 27236 27238 28
21791 27236 27239 28
21792 27236 27240 28
21793 27241 27242 28
21794 27241 27243 28
21795 27241 27244 28
21796 27241 27245 28
21797 27246 27247 28
21798 27246 27248 28
21799 27246 27249 28
21800 27246 27250 28
21801 27251 27252 28
21802 27251 27253 28
21803 27251 27254 28
21804 27251 27255 28
21805 27256 27257 28
21806 27256 27258 28
21807 27256 27259 28
21808 27256 27260 28
21809 27261 27262 28
21810 27261 27263 28
21811 27261 27264 28
21812 27261 27265 28
21813 27266 27267 28
21814 27266 27268 28
21815 27266 27269 28
21816 27266 27270 28
21817 27271 27272 28
21818 27271 27273 28
21819 27271 27274 28
21820 27271 27275 28
21821 27276 27277 28
21822 27276 27278 28
21823 27276 27279 28
21824 27276 27280 28
21825 27281 27282 28
21826 27281 27283 28
21827 27281 27284 28
21828 27281 27285 28
21829 27286 27287 28
21830 27286 27288 28
21831 27286 27289 28
21832 27286 27290 28
21833 27291 27292 28
21834 27291 27293 28
21835 27291 27294 28
21836 27291 27295 28
21837 27296 27297 28
21838 27296 27298 28
21839 27296 27299 28
21840 27296 27300 28
21841 27301 27302 28
21842 27301 27303 28
21843 27301 27304 28
21844 27301 27305 28
21845 27306 27307 28
21846 27306 27308 28
21847 27306 27309 28
21848 27306 27310 28
21849 27311 27312 28
21850 27311 27313 28
21851 27311 27314 28
21852 27311 27315 28
21853 27316 27317 28
21854 27316 27318 28
21855 27316 27319 28
21856 27316 27320 28
21857 27321 27322 28
21858 27321 27323 28
21859 27321 27324 28
21860 27321 27325 28
21861 27326 27327 28
21862 27326 27328 28
21863 27326 27329 28
21864 27326 27330 28
21865 27331 27332 28
21866 27331 27333 28
21867 27331 27334 28
21868 27331 27335 28
21869 27336 27337 28
21870 27336 27338 28
21871 27336 27339 28
21872 27336 27340 28
21873 27341 27342 28
21874 27341 27343 28
21875 27341 27344 28
21876 27341 27345 28
21877 27346 27347 28
21878 27346 27348 28
21879 27346 27349 28
21880 27346 27350 28
21881 27351 27352 28
21882 27351 27353 28
21883 27351 27354 28
21884 27351 27355 28
21885 27356 27357 28
21886 27356 27358 28
21887 27356 27359 28
21888 27356 27360 28
21889 27361 27362 28
21890 27361 27363 28
21891 27361 27364 28
21892 27361 27365 28
21893 27366 27367 28
21894 27366 27368 28
21895 27366 27369 28
21896 27366 27370 28
21897 27371 27372 28
21898 27371 27373 28
21899 27371 27374 28
21900 27371 27375 28
21901 27376 27377 28
21902 27376 27378 28
21903 27376 27379 28
21904 27376 27380 28
21905 27381 27382 28
21906 27381 27383 28
21907 27381 27384 28
21908 27381 27385 28
21909 27386 27387 28
21910 27386 27388 28
21911 27386 27389 28
21912 27386 27390 28
21913 27391 27392 28
21914 27391 27393 28
21915 27391 27394 28
21916 27391 27395 28
21917 27396 27397 28
21918 27396 27398 28
21919 27396 27399 28
21920 27396 27400 28
21921 27401 27402 28
21922 27401 27403 28
21923 27401 27404 28
21924 27401 27405 28
21925 27406 27407 28
21926 27406 27408 28
21927 27406 27409 28
21928 27406 27410 28
21929 27411 27412 28
21930 27411 27413 28
21931 27411 27414 28
21932 27411 27415 28
21933 27416 27417 28
21934 27416 27418 28
21935 27416 27419 28
21936 27416 27420 28
21937 27421 27422 28
21938 27421 27423 28
21939 27421 27424 28
21940 27421 27425 28
21941 27426 27427 28
21942 27426 27428 28
21943 27426 27429 28
21944 27426 27430 28
21945 27431 27432 28
21946 27431 27433 28
21947 27431 27434 28
21948 27431 27435 28
21949 27436 27437 28
21950 27436 27438 28
21951 27436 27439 28
21952 27436 27440 28
21953 27441 27442 28
21954 27441 27443 28
21955 27441 27444 28
21956 27441 27445 28
21957 27446 27447 28
21958 27446 27448 28
21959 27446 27449 28
21960 27446 27450 28
21961 27451 27452 28
21962 27451 27453 28
21963 27451 27454 28
21964 27451 27455 28
21965 27456 27457 28
21966 27456 27458 28
21967 27456 27459 28
21968 27456 27460 28
21969 27461 27462 28
21970 27461 27463 28
21971 27461 27464 28
21972 27461 27465 28
21973 27466 27467 28
21974 27466 27468 28
21975 27466 27469 28
21976 27466 27470 28
21977 27471 27472 28
21978 27471 27473 28
21979 27471 27474 28
21980 27471 27475 28
21981 27476 27477 28
21982 27476 27478 28
21983 27476 27479 28
21984 27476 27480 28
21985 27481 27482 28
21986 27481 27483 28
21987 27481 27484 28
21988 27481 27485 28
21989 27486 27487 28
21990 27486 27488 28
21991 27486 27489 28
21992 27486 27490 28
21993 27491 27492 28
21994 27491 27493 28
21995 27491 27494 28
21996 27491 27495 28
21997 27496 27497 28
21998 27496 27498 28
21999 27496 27499 28
22000 27496 27500 28
22001 27501 27502 28
22002 27501 27503 28
22003 27501 27504 28
22004 27501 27505 28
22005 27506 27507 28
22006 27506 27508 28
22007 27506 27509 28
22008 27506 27510 28
22009 27511 27512 28
22010 27511 27513 28
22011 27511 27514 28
22012 27511 27515 28
22013 27516 27517 28
22014 27516 27518 28
22015 27516 27519 28
22016 27516 27520 28
22017 27521 27522 28
22018 27521 27523 28
22019 27521 27524 28
22020 27521 27525 28
22021 27526 27527 28
22022 27526 27528 28
22023 27526 27529 28
22024 27526 27530 28
22025 27531 27532 28
22026 27531 27533 28
22027 27531 27534 28
22028 27531 27535 28
22029 27536 27537 28
22030 27536 27538 28
22031 27536 27539 28
22032 27536 27540 28
22033 27541 27542 28
22034 27541 27543 28
22035 27541 27544 28
22036 27541 27545 28
22037 27546 27547 28
22038 27546 27548 28
22039 27546 27549 28
22040 27546 27550 28
22041 27551 27552 28
22042 27551 27553 28
22043 27551 27554 28
22044 27551 27555 28
22045 27556 27557 28
22046 27556 27558 28
22047 27556 27559 28
22048 27556 27560 28
22049 27561 27562 28
22050 27561 27563 28
22051 27561 27564 28
22052 27561 27565 28
22053 27566 27567 28
22054 27566 27568 28
22055 27566 27569 28
22056 27566 27570 28
22057 27571 27572 28
22058 27571 27573 28
22059 27571 27574 28
22060 27571 27575 28
22061 27576 27577 28
22062 27576 27578 28
22063 27576 27579 28
22064 27576 27580 28
22065 27581 27582 28
22066 27581 27583 28
22067 27581 27584 28
22068 27581 27585 28
22069 27586 27587 28
22070 27586 27588 28
22071 27586 27589 28
22072 27586 27590 28
22073 27591 27592 28
22074 27591 27593 28
22075 27591 27594 28
22076 27591 27595 28
22077 27596 27597 28
22078 27596 27598 28
22079 27596 27599 28
22080 27596 27600 28
22081 27601 27602 28
22082 27601 27603 28
22083 27601 27604 28
22084 27601 27605 28
22085 27606 27607 28
22086 27606 27608 28
22087 27606 27609 28
22088 27606 27610 28
22089 27611 27612 28
22090 27611 27613 28
22091 27611 27614 28
22092 27611 27615 28
22093 27616 27617 28
22094 27616 27618 28
22095 27616 27619 28
22096 27616 27620 28
22097 27621 27622 28
22098 27621 27623 28
22099 27621 27624 28
22100 27621 27625 28
22101 27626 27627 28
22102 27626 27628 28
22103 27626 27629 28
22104 27626 27630 28
22105 27631 27632 28
22106 27631 27633 28
22107 27631 27634 28
22108 27631 27635 28
22109 27636 27637 28
22110 27636 27638 28
22111 27636 27639 28
22112 27636 27640 28
22113 27641 27642 28
22114 27641 27643 28
22115 27641 27644 28
22116 27641 27645 28
22117 27646 27647 28
22118 27646 27648 28
22119 27646 27649 28
22120 27646 27650 28
22121 27651 27652 28
22122 27651 27653 28
22123 27651 27654 28
22124 27651 27655 28
22125 27656 27657 28
22126 27656 27658 28
22127 27656 27659 28
22128 27656 27660 28
22129 27661 27662 28
22130 27661 27663 28
22131 27661 27664 28
22132 27661 27665 28
22133 27666 27667 28
22134 27666 27668 28
22135 27666 27669 28
22136 27666 27670 28
22137 27671 27672 28
22138 27671 27673 28
22139 27671 27674 28
22140 27671 27675 28
22141 27676 27677 28
22142 27676 27678 28
22143 27676 27679 28
22144 27676 27680 28
22145 27681 27682 28
22146 27681 27683 28
22147 27681 27684 28
22148 27681 27685 28
22149 27686 27687 28
22150 27686 27688 28
22151 27686 27689 28
22152 27686 27690 28
22153 27691 27692 28
22154 27691 27693 28
22155 27691 27694 28
22156 27691 27695 28
22157 27696 27697 28
22158 27696 27698 28
22159 27696 27699 28
22160 27696 27700 28
22161 27701 27702 28
22162 27701 27703 28
22163 27701 27704 28
22164 27701 27705 28
22165 27706 27707 28
22166 27706 27708 28
22167 27706 27709 28
22168 27706 27710 28
22169 27711 27712 28
22170 27711 27713 28
22171 27711 27714 28
22172 27711 27715 28
22173 27716 27717 28
22174 27716 27718 28
22175 27716 27719 28
22176 27716 27720 28
22177 27721 27722 28
22178 27721 27723 28
22179 27721 27724 28
22180 27721 27725 28
22181 27726 27727 28
22182 27726 27728 28
22183 27726 27729 28
22184 27726 27730 28
22185 27731 27732 28
22186 27731 27733 28
22187 27731 27734 28
22188 27731 27735 28
22189 27736 27737 28
22190 27736 27738 28
22191 27736 27739 28
22192 27736 27740 28
22193 27741 27742 28
22194 27741 27743 28
22195 27741 27744 28
22196 27741 27745 28
22197 27746 27747 28
22198 27746 27748 28
22199 27746 27749 28
22200 27746 27750 28
22201 27751 27752 28
22202 27751 27753 28
22203 27751 27754 28
22204 27751 27755 28
22205 27756 27757 28
22206 27756 27758 28
22207 27756 27759 28
22208 27756 27760 28
22209 27761 27762 28
22210 27761 27763 28
22211 27761 27764 28
22212 27761 27765 28
22213 27766 27767 28
22214 27766 27768 28
22215 27766 27769 28
22216 27766 27770 28
22217 27771 27772 28
22218 27771 27773 28
22219 27771 27774 28
22220 27771 27775 28
22221 27776 27777 28
22222 27776 27778 28
22223 27776 27779 28
22224 27776 27780 28
22225 27781 27782 28
22226 27781 27783 28
22227 27781 27784 28
22228 27781 27785 28
22229 27786 27787 28
22230 27786 27788 28
22231 27786 27789 28
22232 27786 27790 28
22233 27791 27792 28
22234 27791 27793 28
22235 27791 27794 28
22236 27791 27795 28
22237 27796 27797 28
22238 27796 27798 28
22239 27796 27799 28
22240 27796 27800 28
22241 27801 27802 28
22242 27801 27803 28
22243 27801 27804 28
22244 27801 27805 28
22245 27806 27807 28
22246 27806 27808 28
22247 27806 27809 28
22248 27806 27810 28
22249 27811 27812 28
22250 27811 27813 28
22251 27811 27814 28
22252 27811 27815 28
22253 27816 27817 28
22254 27816 27818 28
22255 27816 27819 28
22256 27816 27820 28
22257 27821 27822 28
22258 27821 27823 28
22259 27821 27824 28
22260 27821 27825 28
22261 27826 27827 28
22262 27826 27828 28
22263 27826 27829 28
22264 27826 27830 28
22265 27831 27832 28
22266 27831 27833 28
22267 27831 27834 28
22268 27831 27835 28
22269 27836 27837 28
22270 27836 27838 28
22271 27836 27839 28
22272 27836 27840 28
22273 27841 27842 28
22274 27841 27843 28
22275 27841 27844 28
22276 27841 27845 28
22277 27846 27847 28
22278 27846 27848 28
22279 27846 27849 28
22280 27846 27850 28
22281 27851 27852 28
22282 27851 27853 28
22283 27851 27854 28
22284 27851 27855 28
22285 27856 27857 28
22286 27856 27858 28
22287 27856 27859 28
22288 27856 27860 28
22289 27861 27862 28
22290 27861 27863 28
22291 27861 27864 28
22292 27861 27865 28
22293 27866 27867 28
22294 27866 27868 28
22295 27866 27869 28
22296 27866 27870 28
22297 27871 27872 28
22298 27871 27873 28
22299 27871 27874 28
22300 27871 27875 28
22301 27876 27877 28
22302 27876 27878 28
22303 27876 27879 28
22304 27876 27880 28
22305 27881 27882 28
22306 27881 27883 28
22307 27881 27884 28
22308 27881 27885 28
22309 27886 27887 28
22310 27886 27888 28
22311 27886 27889 28
22312 27886 27890 28
22313 27891 27892 28
22314 27891 27893 28
22315 27891 27894 28
22316 27891 27895 28
22317 27896 27897 28
22318 27896 27898 28
22319 27896 27899 28
22320 27896 27900 28
22321 27901 27902 28
22322 27901 27903 28
22323 27901 27904 28
22324 27901 27905 28
22325 27906 27907 28
22326 27906 27908 28
22327 27906 27909 28
22328 27906 27910 28
22329 27911 27912 28
22330 27911 27913 28
22331 27911 27914 28
22332 27911 27915 28
22333 27916 27917 28
22334 27916 27918 28
22335 27916 27919 28
22336 27916 27920 28
22337 27921 27922 28
22338 27921 27923 28
22339 27921 27924 28
22340 27921 27925 28
22341 27926 27927 28
22342 27926 27928 28
22343 27926 27929 28
22344 27926 27930 28
22345 27931 27932 28
22346 27931 27933 28
22347 27931 27934 28
22348 27931 27935 28
22349 27936 27937 28
22350 27936 27938 28
22351 27936 27939 28
22352 27936 27940 28
22353 27941 27942 28
22354 27941 27943 28
22355 27941 27944 28
22356 27941 27945 28
22357 27946 27947 28
22358 27946 27948 28
22359 27946 27949 28
22360 27946 27950 28
22361 27951 27952 28
22362 27951 27953 28
22363 27951 27954 28
22364 27951 27955 28
22365 27956 27957 28
22366 27956 27958 28
22367 27956 27959 28
22368 27956 27960 28
22369 27961 27962 28
22370 27961 27963 28
22371 27961 27964 28
22372 27961 27965 28
22373 27966 27967 28
22374 27966 27968 28
22375 27966 27969 28
22376 27966 27970 28
22377 27971 27972 28
22378 27971 27973 28
22379 27971 27974 28
22380 27971 27975 28
22381 27976 27977 28
22382 27976 27978 28
22383 27976 27979 28
22384 27976 27980 28
22385 27981 27982 28
22386 27981 27983 28
22387 27981 27984 28
22388 27981 27985 28
22389 27986 27987 28
22390 27986 27988 28
22391 27986 27989 28
22392 27986 27990 28
22393 27991 27992 28
22394 27991 27993 28
22395 27991 27994 28
22396 27991 27995 28
22397 27996 27997 28
22398 27996 27998 28
22399 27996 27999 28
22400 27996 28000 28
22401 28001 28002 28
22402 28001 28003 28
22403 28001 28004 28
22404 28001 28005 28
22405 28006 28007 28
22406 28006 28008 28
22407 28006 28009 28
22408 28006 28010 28
22409 28011 28012 28
22410 28011 28013 28
22411 28011 28014 28
22412 28011 28015 28
22413 28016 28017 28
22414 28016 28018 28
22415 28016 28019 28
22416 28016 28020 28
22417 28021 28022 28
22418 28021 28023 28
22419 28021 28024 28
22420 28021 28025 28
22421 28026 28027 28
22422 28026 28028 28
22423 28026 28029 28
22424 28026 28030 28
22425 28031 28032 28
22426 28031 28033 28
22427 28031 28034 28
22428 28031 28035 28
22429 28036 28037 28
22430 28036 28038 28
22431 28036 28039 28
22432 28036 28040 28
22433 28041 28042 28
22434 28041 28043 28
22435 28041 28044 28
22436 28041 28045 28
22437 28046 28047 28
22438 28046 28048 28
22439 28046 28049 28
22440 28046 28050 28
22441 28051 28052 28
22442 28051 28053 28
22443 28051 28054 28
22444 28051 28055 28
22445 28056 28057 28
22446 28056 28058 28
22447 28056 28059 28
22448 28056 28060 28
22449 28061 28062 28
22450 28061 28063 28
22451 28061 28064 28
22452 28061 28065 28
22453 28066 28067 28
22454 28066 28068 28
22455 28066 28069 28
22456 28066 28070 28
22457 28071 28072 28
22458 28071 28073 28
22459 28071 28074 28
22460 28071 28075 28
22461 28076 28077 28
22462 28076 28078 28
22463 28076 28079 28
22464 28076 28080 28
22465 28081 28082 28
22466 28081 28083 28
22467 28081 28084 28
22468 28081 28085 28
22469 28086 28087 28
22470 28086 28088 28
22471 28086 28089 28
22472 28086 28090 28
22473 28091 28092 28
22474 28091 28093 28
22475 28091 28094 28
22476 28091 28095 28
22477 28096 28097 28
22478 28096 28098 28
22479 28096 28099 28
22480 28096 28100 28
22481 28101 28102 28
22482 28101 28103 28
22483 28101 28104 28
22484 28101 28105 28
22485 28106 28107 28
22486 28106 28108 28
22487 28106 28109 28
22488 28106 28110 28
22489 28111 28112 28
22490 28111 28113 28
22491 28111 28114 28
22492 28111 28115 28
22493 28116 28117 28
22494 28116 28118 28
22495 28116 28119 28
22496 28116 28120 28
22497 28121 28122 28
22498 28121 28123 28
22499 28121 28124 28
22500 28121 28125 28
22501 28126 28127 28
22502 28126 28128 28
22503 28126 28129 28
22504 28126 28130 28
22505 28131 28132 28
22506 28131 28133 28
22507 28131 28134 28
22508 28131 28135 28
22509 28136 28137 28
22510 28136 28138 28
22511 28136 28139 28
22512 28136 28140 28
22513 28141 28142 28
22514 28141 28143 28
22515 28141 28144 28
22516 28141 28145 28
22517 28146 28147 28
22518 28146 28148 28
22519 28146 28149 28
22520 28146 28150 28
22521 28151 28152 28
22522 28151 28153 28
22523 28151 28154 28
22524 28151 28155 28
22525 28156 28157 28
22526 28156 28158 28
22527 28156 28159 28
22528 28156 28160 28
22529 28161 28162 28
22530 28161 28163 28
22531 28161 28164 28
22532 28161 28165 28
22533 28166 28167 28
22534 28166 28168 28
22535 28166 28169 28
22536 28166 28170 28
22537 28171 28172 28
22538 28171 28173 28
22539 28171 28174 28
22540 28171 28175 28
22541 28176 28177 28
22542 28176 28178 28
22543 28176 28179 28
22544 28176 28180 28
22545 28181 28182 28
22546 28181 28183 28
22547 28181 28184 28
22548 28181 28185 28
22549 28186 28187 28
22550 28186 28188 28
22551 28186 28189 28
22552 28186 28190 28
22553 28191 28192 28
22554 28191 28193 28
22555 28191 28194 28
22556 28191 28195 28
22557 28196 28197 28
22558 28196 28198 28
22559 28196 28199 28
22560 28196 28200 28
22561 28201 28202 28
22562 28201 28203 28
22563 28201 28204 28
22564 28201 28205 28
22565 28206 28207 28
22566 28206 28208 28
22567 28206 28209 28
22568 28206 28210 28
22569 28211 28212 28
22570 28211 28213 28
22571 28211 28214 28
22572 28211 28215 28
22573 28216 28217 28
22574 28216 28218 28
22575 28216 28219 28
22576 28216 28220 28
22577 28221 28222 28
22578 28221 28223 28
22579 28221 28224 28
22580 28221 28225 28
22581 28226 28227 28
22582 28226 28228 28
22583 28226 28229 28
22584 28226 28230 28
22585 28231 28232 28
22586 28231 28233 28
22587 28231 28234 28
22588 28231 28235 28
22589 28236 28237 28
22590 28236 28238 28
22591 28236 28239 28
22592 28236 28240 28
22593 28241 28242 28
22594 28241 28243 28
22595 28241 28244 28
22596 28241 28245 28
22597 28246 28247 28
22598 28246 28248 28
22599 28246 28249 28
22600 28246 28250 28
22601 28251 28252 28
22602 28251 28253 28
22603 28251 28254 28
22604 28251 28255 28
22605 28256 28257 28
22606 28256 28258 28
22607 28256 28259 28
22608 28256 28260 28
22609 28261 28262 28
22610 28261 28263 28
22611 28261 28264 28
22612 28261 28265 28
22613 28266 28267 28
22614 28266 28268 28
22615 28266 28269 28
22616 28266 28270 28
22617 28271 28272 28
22618 28271 28273 28
22619 28271 28274 28
22620 28271 28275 28
22621 28276 28277 28
22622 28276 28278 28
22623 28276 28279 28
22624 28276 28280 28
22625 28281 28282 28
22626 28281 28283 28
22627 28281 28284 28
22628 28281 28285 28
22629 28286 28287 28
22630 28286 28288 28
22631 28286 28289 28
22632 28286 28290 28
22633 28291 28292 28
22634 28291 28293 28
22635 28291 28294 28
22636 28291 28295 28
22637 28296 28297 28
22638 28296 28298 28
22639 28296 28299 28
22640 28296 28300 28
22641 28301 28302 28
22642 28301 28303 28
22643 28301 28304 28
22644 28301 28305 28
22645 28306 28307 28
22646 28306 28308 28
22647 28306 28309 28
22648 28306 28310 28
22649 28311 28312 28
22650 28311 28313 28
22651 28311 28314 28
22652 28311 28315 28
22653 28316 28317 28
22654 28316 28318 28
22655 28316 28319 28
22656 28316 28320 28
22657 28321 28322 28
22658 28321 28323 28
22659 28321 28324 28
22660 28321 28325 28
22661 28326 28327 28
22662 28326 28328 28
22663 28326 28329 28
22664 28326 28330 28
22665 28331 28332 28
22666 28331 28333 28
22667 28331 28334 28
22668 28331 28335 28
22669 28336 28337 28
22670 28336 28338 28
22671 28336 28339 28
22672 28336 28340 28
22673 28341 28342 28
22674 28341 28343 28
22675 28341 28344 28
22676 28341 28345 28
22677 28346 28347 28
22678 28346 28348 28
22679 28346 28349 28
22680 28346 28350 28
22681 28351 28352 28
22682 28351 28353 28
22683 28351 28354 28
22684 28351 28355 28
22685 28356 28357 28
22686 28356 28358 28
22687 28356 28359 28
22688 28356 28360 28
22689 28361 28362 28
22690 28361 28363 28
22691 28361 28364 28
22692 28361 28365 28
22693 28366 28367 28
22694 28366 28368 28
22695 28366 28369 28
22696 28366 28370 28
22697 28371 28372 28
22698 28371 28373 28
22699 28371 28374 28
22700 28371 28375 28
22701 28376 28377 28
22702 28376 28378 28
22703 28376 28379 28
22704 28376 28380 28
22705 28381 28382 28
22706 28381 28383 28
22707 28381 28384 28
22708 28381 28385 28
22709 28386 28387 28
22710 28386 28388 28
22711 28386 28389 28
22712 28386 28390 28
22713 28391 28392 28
22714 28391 28393 28
22715 28391 28394 28
22716 28391 28395 28
22717 28396 28397 28
22718 28396 28398 28
22719 28396 28399 28
22720 28396 28400 28
22721 28401 28402 28
22722 28401 28403 28
22723 28401 28404 28
22724 28401 28405 28
22725 28406 28407 28
22726 28406 28408 28
22727 28406 28409 28
22728 28406 28410 28
22729 28411 28412 28
22730 28411 28413 28
22731 28411 28414 28
22732 28411 28415 28
22733 28416 28417 28
22734 28416 28418 28
22735 28416 28419 28
22736 28416 28420 28
22737 28421 28422 28
22738 28421 28423 28
22739 28421 28424 28
22740 28421 28425 28
22741 28426 28427 28
22742 28426 28428 28
22743 28426 28429 28
22744 28426 28430 28
22745 28431 28432 28
22746 28431 28433 28
22747 28431 28434 28
22748 28431 28435 28
22749 28436 28437 28
22750 28436 28438 28
22751 28436 28439 28
22752 28436 28440 28
22753 28441 28442 28
22754 28441 28443 28
22755 28441 28444 28
22756 28441 28445 28
22757 28446 28447 28
22758 28446 28448 28
22759 28446 28449 28
22760 28446 28450 28
22761 28451 28452 28
22762 28451 28453 28
22763 28451 28454 28
22764 28451 28455 28
22765 28456 28457 28
22766 28456 28458 28
22767 28456 28459 28
22768 28456 28460 28
22769 28461 28462 28
22770 28461 28463 28
22771 28461 28464 28
22772 28461 28465 28
22773 28466 28467 28
22774 28466 28468 28
22775 28466 28469 28
22776 28466 28470 28
22777 28471 28472 28
22778 28471 28473 28
22779 28471 28474 28
22780 28471 28475 28
22781 28476 28477 28
22782 28476 28478 28
22783 28476 28479 28
22784 28476 28480 28
22785 28481 28482 28
22786 28481 28483 28
22787 28481 28484 28
22788 28481 28485 28
22789 28486 28487 28
22790 28486 28488 28
22791 28486 28489 28
22792 28486 28490 28
22793 28491 28492 28
22794 28491 28493 28
22795 28491 28494 28
22796 28491 28495 28
22797 28496 28497 28
22798 28496 28498 28
22799 28496 28499 28
22800 28496 28500 28
22801 28501 28502 28
22802 28501 28503 28
22803 28501 28504 28
22804 28501 28505 28
22805 28506 28507 28
22806 28506 28508 28
22807 28506 28509 28
22808 28506 28510 28
22809 28511 28512 28
22810 28511 28513 28
22811 28511 28514 28
22812 28511 28515 28
22813 28516 28517 28
22814 28516 28518 28
22815 28516 28519 28
22816 28516 28520 28
22817 28521 28522 28
22818 28521 28523 28
22819 28521 28524 28
22820 28521 28525 28
22821 28526 28527 28
22822 28526 28528 28
22823 28526 28529 28
22824 28526 28530 28
22825 28531 28532 28
22826 28531 28533 28
22827 28531 28534 28
22828 28531 28535 28
22829 28536 28537 28
22830 28536 28538 28
22831 28536 28539 28
22832 28536 28540 28
22833 28541 28542 28
22834 28541 28543 28
22835 28541 28544 28
22836 28541 28545 28
22837 28546 28547 28
22838 28546 28548 28
22839 28546 28549 28
22840 28546 28550 28
22841 28551 28552 28
22842 28551 28553 28
22843 28551 28554 28
22844 28551 28555 28
22845 28556 28557 28
22846 28556 28558 28
22847 28556 28559 28
22848 28556 28560 28
22849 28561 28562 28
22850 28561 28563 28
22851 28561 28564 28
22852 28561 28565 28
22853 28566 28567 28
22854 28566 28568 28
22855 28566 28569 28
22856 28566 28570 28
22857 28571 28572 28
22858 28571 28573 28
22859 28571 28574 28
22860 28571 28575 28
22861 28576 28577 28
22862 28576 28578 28
22863 28576 28579 28
22864 28576 28580 28
22865 28581 28582 28
22866 28581 28583 28
22867 28581 28584 28
22868 28581 28585 28
22869 28586 28587 28
22870 28586 28588 28
22871 28586 28589 28
22872 28586 28590 28
22873 28591 28592 28
22874 28591 28593 28
22875 28591 28594 28
22876 28591 28595 28
22877 28596 28597 28
22878 28596 28598 28
22879 28596 28599 28
22880 28596 28600 28
22881 28601 28602 28
22882 28601 28603 28
22883 28601 28604 28
22884 28601 28605 28
22885 28606 28607 28
22886 28606 28608 28
22887 28606 28609 28
22888 28606 28610 28
22889 28611 28612 28
22890 28611 28613 28
22891 28611 28614 28
22892 28611 28615 28
22893 28616 28617 28
22894 28616 28618 28
22895 28616 28619 28
22896 28616 28620 28
22897 28621 28622 28
22898 28621 28623 28
22899 28621 28624 28
22900 28621 28625 28
22901 28626 28627 28
22902 28626 28628 28
22903 28626 28629 28
22904 28626 28630 28
22905 28631 28632 28
22906 28631 28633 28
22907 28631 28634 28
22908 28631 28635 28
22909 28636 28637 28
22910 28636 28638 28
22911 28636 28639 28
22912 28636 28640 28
22913 28641 28642 28
22914 28641 28643 28
22915 28641 28644 28
22916 28641 28645 28
22917 28646 28647 28
22918 28646 28648 28
22919 28646 28649 28
22920 28646 28650 28
22921 28651 28652 28
22922 28651 28653 28
22923 28651 28654 28
22924 28651 28655 28
22925 28656 28657 28
22926 28656 28658 28
22927 28656 28659 28
22928 28656 28660 28
22929 28661 28662 28
22930 28661 28663 28
22931 28661 28664 28
22932 28661 28665 28
22933 28666 28667 28
22934 28666 28668 28
22935 28666 28669 28
22936 28666 28670 28
22937 28671 28672 28
22938 28671 28673 28
22939 28671 28674 28
22940 28671 28675 28
22941 28676 28677 28
22942 28676 28678 28
22943 28676 28679 28
22944 28676 28680 28
22945 28681 28682 28
22946 28681 28683 28
22947 28681 28684 28
22948 28681 28685 28
22949 28686 28687 28
22950 28686 28688 28
22951 28686 28689 28
22952 28686 28690 28
22953 28691 28692 28
22954 28691 28693 28
22955 28691 28694 28
22956 28691 28695 28
22957 28696 28697 28
22958 28696 28698 28
22959 28696 28699 28
22960 28696 28700 28
22961 28701 28702 28
22962 28701 28703 28
22963 28701 28704 28
22964 28701 28705 28
22965 28706 28707 28
22966 28706 28708 28
22967 28706 28709 28
22968 28706 28710 28
22969 28711 28712 28
22970 28711 28713 28
22971 28711 28714 28
22972 28711 28715 28
22973 28716 28717 28
22974 28716 28718 28
22975 28716 28719 28
22976 28716 28720 28
22977 28721 28722 28
22978 28721 28723 28
22979 28721 28724 28
22980 28721 28725 28
22981 28726 28727 28
22982 28726 28728 28
22983 28726 28729 28
22984 28726 28730 28
22985 28731 28732 28
22986 28731 28733 28
22987 28731 28734 28
22988 28731 28735 28
22989 28736 28737 28
22990 28736 28738 28
22991 28736 28739 28
22992 28736 28740 28
22993 28741 28742 28
22994 28741 28743 28
22995 28741 28744 28
22996 28741 28745 28
22997 28746 28747 28
22998 28746 28748 28
22999 28746 28749 28
23000 28746 28750 28
23001 28751 28752 28
23002 28751 28753 28
23003 28751 28754 28
23004 28751 28755 28
23005 28756 28757 28
23006 28756 28758 28
23007 28756 28759 28
23008 28756 28760 28
23009 28761 28762 28
23010 28761 28763 28
23011 28761 28764 28
23012 28761 28765 28
23013 28766 28767 28
23014 28766 28768 28
23015 28766 28769 28
23016 28766 28770 28
23017 28771 28772 28
23018 28771 28773 28
23019 28771 28774 28
23020 28771 28775 28
23021 28776 28777 28
23022 28776 28778 28
23023 28776 28779 28
23024 28776 28780 28
23025 28781 28782 28
23026 28781 28783 28
23027 28781 28784 28
23028 28781 28785 28
23029 28786 28787 28
23030 28786 28788 28
23031 28786 28789 28
23032 28786 28790 28
23033 28791 28792 28
23034 28791 28793 28
23035 28791 28794 28
23036 28791 28795 28
23037 28796 28797 28
23038 28796 28798 28
23039 28796 28799 28
23040 28796 28800 28
23041 28801 28802 28
23042 28801 28803 28
23043 28801 28804 28
23044 28801 28805 28
23045 28806 28807 28
23046 28806 28808 28
23047 28806 28809 28
23048 28806 28810 28
23049 28811 28812 28
23050 28811 28813 28
23051 28811 28814 28
23052 28811 28815 28
23053 28816 28817 28
23054 28816 28818 28
23055 28816 28819 28
23056 28816 28820 28
23057 28821 28822 28
23058 28821 28823 28
23059 28821 28824 28
23060 28821 28825 28
23061 28826 28827 28
23062 28826 28828 28
23063 28826 28829 28
23064 28826 28830 28
23065 28831 28832 28
23066 28831 28833 28
23067 28831 28834 28
23068 28831 28835 28
23069 28836 28837 28
23070 28836 28838 28
23071 28836 28839 28
23072 28836 28840 28
23073 28841 28842 28
23074 28841 28843 28
23075 28841 28844 28
23076 28841 28845 28
23077 28846 28847 28
23078 28846 28848 28
23079 28846 28849 28
23080 28846 28850 28
23081 28851 28852 28
23082 28851 28853 28
23083 28851 28854 28
23084 28851 28855 28
23085 28856 28857 28
23086 28856 28858 28
23087 28856 28859 28
23088 28856 28860 28
23089 28861 28862 28
23090 28861 28863 28
23091 28861 28864 28
23092 28861 28865 28
23093 28866 28867 28
23094 28866 28868 28
23095 28866 28869 28
23096 28866 28870 28
23097 28871 28872 28
23098 28871 28873 28
23099 28871 28874 28
23100 28871 28875 28
23101 28876 28877 28
23102 28876 28878 28
23103 28876 28879 28
23104 28876 28880 28
23105 28881 28882 28
23106 28881 28883 28
23107 28881 28884 28
23108 28881 28885 28
23109 28886 28887 28
23110 28886 28888 28
23111 28886 28889 28
23112 28886 28890 28
23113 28891 28892 28
23114 28891 28893 28
23115 28891 28894 28
23116 28891 28895 28
23117 28896 28897 28
23118 28896 28898 28
23119 28896 28899 28
23120 28896 28900 28
23121 28901 28902 28
23122 28901 28903 28
23123 28901 28904 28
23124 28901 28905 28
23125 28906 28907 28
23126 28906 28908 28
23127 28906 28909 28
23128 28906 28910 28
23129 28911 28912 28
23130 28911 28913 28
23131 28911 28914 28
23132 28911 28915 28
23133 28916 28917 28
23134 28916 28918 28
23135 28916 28919 28
23136 28916 28920 28
23137 28921 28922 28
23138 28921 28923 28
23139 28921 28924 28
23140 28921 28925 28
23141 28926 28927 28
23142 28926 28928 28
23143 28926 28929 28
23144 28926 28930 28
23145 28931 28932 28
23146 28931 28933 28
23147 28931 28934 28
23148 28931 28935 28
23149 28936 28937 28
23150 28936 28938 28
23151 28936 28939 28
23152 28936 28940 28
23153 28941 28942 28
23154 28941 28943 28
23155 28941 28944 28
23156 28941 28945 28
23157 28946 28947 28
23158 28946 28948 28
23159 28946 28949 28
23160 28946 28950 28
23161 28951 28952 28
23162 28951 28953 28
23163 28951 28954 28
23164 28951 28955 28
23165 28956 28957 28
23166 28956 28958 28
23167 28956 28959 28
23168 28956 28960 28
23169 28961 28962 28
23170 28961 28963 28
23171 28961 28964 28
23172 28961 28965 28
23173 28966 28967 28
23174 28966 28968 28
23175 28966 28969 28
23176 28966 28970 28
23177 28971 28972 28
23178 28971 28973 28
23179 28971 28974 28
23180 28971 28975 28
23181 28976 28977 28
23182 28976 28978 28
23183 28976 28979 28
23184 28976 28980 28
23185 28981 28982 28
23186 28981 28983 28
23187 28981 28984 28
23188 28981 28985 28
23189 28986 28987 28
23190 28986 28988 28
23191 28986 28989 28
23192 28986 28990 28
23193 28991 28992 28
23194 28991 28993 28
23195 28991 28994 28
23196 28991 28995 28
23197 28996 28997 28
23198 28996 28998 28
23199 28996 28999 28
23200 28996 29000 28
23201 29001 29002 28
23202 29001 29003 28
23203 29001 29004 28
23204 29001 29005 28
23205 29006 29007 28
23206 29006 29008 28
23207 29006 29009 28
23208 29006 29010 28
23209 29011 29012 28
23210 29011 29013 28
23211 29011 29014 28
23212 29011 29015 28
23213 29016 29017 28
23214 29016 29018 28
23215 29016 29019 28
23216 29016 29020 28
23217 29021 29022 28
23218 29021 29023 28
23219 29021 29024 28
23220 29021 29025 28
23221 29026 29027 28
23222 29026 29028 28
23223 29026 29029 28
23224 29026 29030 28
23225 29031 29032 28
23226 29031 29033 28
23227 29031 29034 28
23228 29031 29035 28
23229 29036 29037 28
23230 29036 29038 28
23231 29036 29039 28
23232 29036 29040 28
23233 29041 29042 28
23234 29041 29043 28
23235 29041 29044 28
23236 29041 29045 28
23237 29046 29047 28
23238 29046 29048 28
23239 29046 29049 28
23240 29046 29050 28
23241 29051 29052 28
23242 29051 29053 28
23243 29051 29054 28
23244 29051 29055 28
23245 29056 29057 28
23246 29056 29058 28
23247 29056 29059 28
23248 29056 29060 28
23249 29061 29062 28
23250 29061 29063 28
23251 29061 29064 28
23252 29061 29065 28
23253 29066 29067 28
23254 29066 29068 28
23255 29066 29069 28
23256 29066 29070 28
23257 29071 29072 28
23258 29071 29073 28
23259 29071 29074 28
23260 29071 29075 28
23261 29076 29077 28
23262 29076 29078 28
23263 29076 29079 28
23264 29076 29080 28
23265 29081 29082 28
23266 29081 29083 28
23267 29081 29084 28
23268 29081 29085 28
23269 29086 29087 28
23270 29086 29088 28
23271 29086 29089 28
23272 29086 29090 28
23273 29091 29092 28
23274 29091 29093 28
23275 29091 29094 28
23276 29091 29095 28
23277 29096 29097 28
23278 29096 29098 28
23279 29096 29099 28
23280 29096 29100 28
23281 29101 29102 28
23282 29101 29103 28
23283 29101 29104 28
23284 29101 29105 28
23285 29106 29107 28
23286 29106 29108 28
23287 29106 29109 28
23288 29106 29110 28
23289 29111 29112 28
23290 29111 29113 28
23291 29111 29114 28
23292 29111 29115 28
23293 29116 29117 28
23294 29116 29118 28
23295 29116 29119 28
23296 29116 29120 28
23297 29121 29122 28
23298 29121 29123 28
23299 29121 29124 28
23300 29121 29125 28
23301 29126 29127 28
23302 29126 29128 28
23303 29126 29129 28
23304 29126 29130 28
23305 29131 29132 28
23306 29131 29133 28
23307 29131 29134 28
23308 29131 29135 28
23309 29136 29137 28
23310 29136 29138 28
23311 29136 29139 28
23312 29136 29140 28
23313 29141 29142 28
23314 29141 29143 28
23315 29141 29144 28
23316 29141 29145 28
23317 29146 29147 28
23318 29146 29148 28
23319 29146 29149 28
23320 29146 29150 28
23321 29151 29152 28
23322 29151 29153 28
23323 29151 29154 28
23324 29151 29155 28
23325 29156 29157 28
23326 29156 29158 28
23327 29156 29159 28
23328 29156 29160 28
23329 29161 29162 28
23330 29161 29163 28
23331 29161 29164 28
23332 29161 29165 28
23333 29166 29167 28
23334 29166 29168 28
23335 29166 29169 28
23336 29166 29170 28
23337 29171 29172 28
23338 29171 29173 28
23339 29171 29174 28
23340 29171 29175 28
23341 29176 29177 28
23342 29176 29178 28
23343 29176 29179 28
23344 29176 29180 28
23345 29181 29182 28
23346 29181 29183 28
23347 29181 29184 28
23348 29181 29185 28
23349 29186 29187 28
23350 29186 29188 28
23351 29186 29189 28
23352 29186 29190 28
23353 29191 29192 28
23354 29191 29193 28
23355 29191 29194 28
23356 29191 29195 28
23357 29196 29197 28
23358 29196 29198 28
23359 29196 29199 28
23360 29196 29200 28
23361 29201 29202 28
23362 29201 29203 28
23363 29201 29204 28
23364 29201 29205 28
23365 29206 29207 28
23366 29206 29208 28
23367 29206 29209 28
23368 29206 29210 28
23369 29211 29212 28
23370 29211 29213 28
23371 29211 29214 28
23372 29211 29215 28
23373 29216 29217 28
23374 29216 29218 28
23375 29216 29219 28
23376 29216 29220 28
23377 29221 29222 28
23378 29221 29223 28
23379 29221 29224 28
23380 29221 29225 28
23381 29226 29227 28
23382 29226 29228 28
23383 29226 29229 28
23384 29226 29230 28
23385 29231 29232 28
23386 29231 29233 28
23387 29231 29234 28
23388 29231 29235 28
23389 29236 29237 28
23390 29236 29238 28
23391 29236 29239 28
23392 29236 29240 28
23393 29241 29242 28
23394 29241 29243 28
23395 29241 29244 28
23396 29241 29245 28
23397 29246 29247 28
23398 29246 29248 28
23399 29246 29249 28
23400 29246 29250 28
23401 29251 29252 28
23402 29251 29253 28
23403 29251 29254 28
23404 29251 29255 28
23405 29256 29257 28
23406 29256 29258 28
23407 29256 29259 28
23408 29256 29260 28
23409 29261 29262 28
23410 29261 29263 28
23411 29261 29264 28
23412 29261 29265 28
23413 29266 29267 28
23414 29266 29268 28
23415 29266 29269 28
23416 29266 29270 28
23417 29271 29272 28
23418 29271 29273 28
23419 29271 29274 28
23420 29271 29275 28
23421 29276 29277 28
23422 29276 29278 28
23423 29276 29279 28
23424 29276 29280 28
23425 29281 29282 28
23426 29281 29283 28
23427 29281 29284 28
23428 29281 29285 28
23429 29286 29287 28
23430 29286 29288 28
23431 29286 29289 28
23432 29286 29290 28
23433 29291 29292 28
23434 29291 29293 28
23435 29291 29294 28
23436 29291 29295 28
23437 29296 29297 28
23438 29296 29298 28
23439 29296 29299 28
23440 29296 29300 28
23441 29301 29302 28
23442 29301 29303 28
23443 29301 29304 28
23444 29301 29305 28
23445 29306 29307 28
23446 29306 29308 28
23447 29306 29309 28
23448 29306 29310 28
23449 29311 29312 28
23450 29311 29313 28
23451 29311 29314 28
23452 29311 29315 28
23453 29316 29317 28
23454 29316 29318 28
23455 29316 29319 28
23456 29316 29320 28
23457 29321 29322 28
23458 29321 29323 28
23459 29321 29324 28
23460 29321 29325 28
23461 29326 29327 28
23462 29326 29328 28
23463 29326 29329 28
23464 29326 29330 28
23465 29331 29332 28
23466 29331 29333 28
23467 29331 29334 28
23468 29331 29335 28
23469 29336 29337 28
23470 29336 29338 28
23471 29336 29339 28
23472 29336 29340 28
23473 29341 29342 28
23474 29341 29343 28
23475 29341 29344 28
23476 29341 29345 28
23477 29346 29347 28
23478 29346 29348 28
23479 29346 29349 28
23480 29346 29350 28
23481 29351 29352 28
23482 29351 29353 28
23483 29351 29354 28
23484 29351 29355 28
23485 29356 29357 28
23486 29356 29358 28
23487 29356 29359 28
23488 29356 29360 28
23489 29361 29362 28
23490 29361 29363 28
23491 29361 29364 28
23492 29361 29365 28
23493 29366 29367 28
23494 29366 29368 28
23495 29366 29369 28
23496 29366 29370 28
23497 29371 29372 28
23498 29371 29373 28
23499 29371 29374 28
23500 29371 29375 28
23501 29376 29377 28
23502 29376 29378 28
23503 29376 29379 28
23504 29376 29380 28
23505 29381 29382 28
23506 29381 29383 28
23507 29381 29384 28
23508 29381 29385 28
23509 29386 29387 28
23510 29386 29388 28
23511 29386 29389 28
23512 29386 29390 28
23513 29391 29392 28
23514 29391 29393 28
23515 29391 29394 28
23516 29391 29395 28
23517 29396 29397 28
23518 29396 29398 28
23519 29396 29399 28
23520 29396 29400 28
23521 29401 29402 28
23522 29401 29403 28
23523 29401 29404 28
23524 29401 29405 28
23525 29406 29407 28
23526 29406 29408 28
23527 29406 29409 28
23528 29406 29410 28
23529 29411 29412 28
23530 29411 29413 28
23531 29411 29414 28
23532 29411 29415 28
23533 29416 29417 28
23534 29416 29418 28
23535 29416 29419 28
23536 29416 29420 28
23537 29421 29422 28
23538 29421 29423 28
23539 29421 29424 28
23540 29421 29425 28
23541 29426 29427 28
23542 29426 29428 28
23543 29426 29429 28
23544 29426 29430 28
23545 29431 29432 28
23546 29431 29433 28
23547 29431 29434 28
23548 29431 29435 28
23549 29436 29437 28
23550 29436 29438 28
23551 29436 29439 28
23552 29436 29440 28
23553 29441 29442 28
23554 29441 29443 28
23555 29441 29444 28
23556 29441 29445 28
23557 29446 29447 28
23558 29446 29448 28
23559 29446 29449 28
23560 29446 29450 28
23561 29451 29452 28
23562 29451 29453 28
23563 29451 29454 28
23564 29451 29455 28
23565 29456 29457 28
23566 29456 29458 28
23567 29456 29459 28
23568 29456 29460 28
23569 29461 29462 28
23570 29461 29463 28
23571 29461 29464 28
23572 29461 29465 28
23573 29466 29467 28
23574 29466 29468 28
23575 29466 29469 28
23576 29466 29470 28
23577 29471 29472 28
23578 29471 29473 28
23579 29471 29474 28
23580 29471 29475 28
23581 29476 29477 28
23582 29476 29478 28
23583 29476 29479 28
23584 29476 29480 28
23585 29481 29482 28
23586 29481 29483 28
23587 29481 29484 28
23588 29481 29485 28
23589 29486 29487 28
23590 29486 29488 28
23591 29486 29489 28
23592 29486 29490 28
23593 29491 29492 28
23594 29491 29493 28
23595 29491 29494 28
23596 29491 29495 28
23597 29496 29497 28
23598 29496 29498 28
23599 29496 29499 28
23600 29496 29500 28
23601 29501 29502 28
23602 29501 29503 28
23603 29501 29504 28
23604 29501 29505 28
23605 29506 29507 28
23606 29506 29508 28
23607 29506 29509 28
23608 29506 29510 28
23609 29511 29512 28
23610 29511 29513 28
23611 29511 29514 28
23612 29511 29515 28
23613 29516 29517 28
23614 29516 29518 28
23615 29516 29519 28
23616 29516 29520 28
23617 29521 29522 28
23618 29521 29523 28
23619 29521 29524 28
23620 29521 29525 28
23621 29526 29527 28
23622 29526 29528 28
23623 29526 29529 28
23624 29526 29530 28
23625 29531 29532 28
23626 29531 29533 28
23627 29531 29534 28
23628 29531 29535 28
23629 29536 29537 28
23630 29536 29538 28
23631 29536 29539 28
23632 29536 29540 28
23633 29541 29542 28
23634 29541 29543 28
23635 29541 29544 28
23636 29541 29545 28
23637 29546 29547 28
23638 29546 29548 28
23639 29546 29549 28
23640 29546 29550 28
23641 29551 29552 28
23642 29551 29553 28
23643 29551 29554 28
23644 29551 29555 28
23645 29556 29557 28
23646 29556 29558 28
23647 29556 29559 28
23648 29556 29560 28
23649 29561 29562 28
23650 29561 29563 28
23651 29561 29564 28
23652 29561 29565 28
23653 29566 29567 28
23654 29566 29568 28
23655 29566 29569 28
23656 29566 29570 28
23657 29571 29572 28
23658 29571 29573 28
23659 29571 29574 28
23660 29571 29575 28
23661 29576 29577 28
23662 29576 29578 28
23663 29576 29579 28
23664 29576 29580 28
23665 29581 29582 28
23666 29581 29583 28
23667 29581 29584 28
23668 29581 29585 28
23669 29586 29587 28
23670 29586 29588 28
23671 29586 29589 28
23672 29586 29590 28
23673 29591 29592 28
23674 29591 29593 28
23675 29591 29594 28
23676 29591 29595 28
23677 29596 29597 28
23678 29596 29598 28
23679 29596 29599 28
23680 29596 29600 28
23681 29601 29602 28
23682 29601 29603 28
23683 29601 29604 28
23684 29601 29605 28
23685 29606 29607 28
23686 29606 29608 28
23687 29606 29609 28
23688 29606 29610 28
23689 29611 29612 28
23690 29611 29613 28
23691 29611 29614 28
23692 29611 29615 28
23693 29616 29617 28
23694 29616 29618 28
23695 29616 29619 28
23696 29616 29620 28
23697 29621 29622 28
23698 29621 29623 28
23699 29621 29624 28
23700 29621 29625 28
23701 29626 29627 28
23702 29626 29628 28
23703 29626 29629 28
23704 29626 29630 28
23705 29631 29632 28
23706 29631 29633 28
23707 29631 29634 28
23708 29631 29635 28
23709 29636 29637 28
23710 29636 29638 28
23711 29636 29639 28
23712 29636 29640 28
23713 29641 29642 28
23714 29641 29643 28
23715 29641 29644 28
23716 29641 29645 28
23717 29646 29647 28
23718 29646 29648 28
23719 29646 29649 28
23720 29646 29650 28
23721 29651 29652 28
23722 29651 29653 28
23723 29651 29654 28
23724 29651 29655 28
23725 29656 29657 28
23726 29656 29658 28
23727 29656 29659 28
23728 29656 29660 28
23729 29661 29662 28
23730 29661 29663 28
23731 29661 29664 28
23732 29661 29665 28
23733 29666 29667 28
23734 29666 29668 28
23735 29666 29669 28
23736 29666 29670 28
23737 29671 29672 28
23738 29671 29673 28
23739 29671 29674 28
23740 29671 29675 28
23741 29676 29677 28
23742 29676 29678 28
23743 29676 29679 28
23744 29676 29680 28
23745 29681 29682 28
23746 29681 29683 28
23747 29681 29684 28
23748 29681 29685 28
23749 29686 29687 28
23750 29686 29688 28
23751 29686 29689 28
23752 29686 29690 28
23753 29691 29692 28
23754 29691 29693 28
23755 29691 29694 28
23756 29691 29695 28
23757 29696 29697 28
23758 29696 29698 28
23759 29696 29699 28
23760 29696 29700 28
23761 29701 29702 28
23762 29701 29703 28
23763 29701 29704 28
23764 29701 29705 28
23765 29706 29707 28
23766 29706 29708 28
23767 29706 29709 28
23768 29706 29710 28
23769 29711 29712 28
23770 29711 29713 28
23771 29711 29714 28
23772 29711 29715 28
23773 29716 29717 28
23774 29716 29718 28
23775 29716 29719 28
23776 29716 29720 28
23777 29721 29722 28
23778 29721 29723 28
23779 29721 29724 28
23780 29721 29725 28
23781 29726 29727 28
23782 29726 29728 28
23783 29726 29729 28
23784 29726 29730 28
23785 29731 29732 28
23786 29731 29733 28
23787 29731 29734 28
23788 29731 29735 28
23789 29736 29737 28
23790 29736 29738 28
23791 29736 29739 28
23792 29736 29740 28
23793 29741 29742 28
23794 29741 29743 28
23795 29741 29744 28
23796 29741 29745 28
23797 29746 29747 28
23798 29746 29748 28
23799 29746 29749 28
23800 29746 29750 28
23801 29751 29752 28
23802 29751 29753 28
23803 29751 29754 28
23804 29751 29755 28
23805 29756 29757 28
23806 29756 29758 28
23807 29756 29759 28
23808 29756 29760 28
23809 29761 29762 28
23810 29761 29763 28
23811 29761 29764 28
23812 29761 29765 28
23813 29766 29767 28
23814 29766 29768 28
23815 29766 29769 28
23816 29766 29770 28
23817 29771 29772 28
23818 29771 29773 28
23819 29771 29774 28
23820 29771 29775 28
23821 29776 29777 28
23822 29776 29778 28
23823 29776 29779 28
23824 29776 29780 28
23825 29781 29782 28
23826 29781 29783 28
23827 29781 29784 28
23828 29781 29785 28
23829 29786 29787 28
23830 29786 29788 28
23831 29786 29789 28
23832 29786 29790 28
23833 29791 29792 28
23834 29791 29793 28
23835 29791 29794 28
23836 29791 29795 28
23837 29796 29797 28
23838 29796 29798 28
23839 29796 29799 28
23840 29796 29800 28
23841 29801 29802 28
23842 29801 29803 28
23843 29801 29804 28
23844 29801 29805 28
23845 29806 29807 28
23846 29806 29808 28
23847 29806 29809 28
23848 29806 29810 28
23849 29811 29812 28
23850 29811 29813 28
23851 29811 29814 28
23852 29811 29815 28
23853 29816 29817 28
23854 29816 29818 28
23855 29816 29819 28
23856 29816 29820 28
23857 29821 29822 28
23858 29821 29823 28
23859 29821 29824 28
23860 29821 29825 28
23861 29826 29827 28
23862 29826 29828 28
23863 29826 29829 28
23864 29826 29830 28
23865 29831 29832 28
23866 29831 29833 28
23867 29831 29834 28
23868 29831 29835 28
23869 29836 29837 28
23870 29836 29838 28
23871 29836 29839 28
23872 29836 29840 28
23873 29841 29842 28
23874 29841 29843 28
23875 29841 29844 28
23876 29841 29845 28
23877 29846 29847 28
23878 29846 29848 28
23879 29846 29849 28
23880 29846 29850 28
23881 29851 29852 28
23882 29851 29853 28
23883 29851 29854 28
23884 29851 29855 28
23885 29856 29857 28
23886 29856 29858 28
23887 29856 29859 28
23888 29856 29860 28
23889 29861 29862 28
23890 29861 29863 28
23891 29861 29864 28
23892 29861 29865 28
23893 29866 29867 28
23894 29866 29868 28
23895 29866 29869 28
23896 29866 29870 28
23897 29871 29872 28
23898 29871 29873 28
23899 29871 29874 28
23900 29871 29875 28
23901 29876 29877 28
23902 29876 29878 28
23903 29876 29879 28
23904 29876 29880 28
23905 29881 29882 28
23906 29881 29883 28
23907 29881 29884 28
23908 29881 29885 28
23909 29886 29887 28
23910 29886 29888 28
23911 29886 29889 28
23912 29886 29890 28
23913 29891 29892 28
23914 29891 29893 28
23915 29891 29894 28
23916 29891 29895 28
23917 29896 29897 28
23918 29896 29898 28
23919 29896 29899 28
23920 29896 29900 28
23921 29901 29902 28
23922 29901 29903 28
23923 29901 29904 28
23924 29901 29905 28
23925 29906 29907 28
23926 29906 29908 28
23927 29906 29909 28
23928 29906 29910 28
23929 29911 29912 28
23930 29911 29913 28
23931 29911 29914 28
23932 29911 29915 28
23933 29916 29917 28
23934 29916 29918 28
23935 29916 29919 28
23936 29916 29920 28
23937 29921 29922 28
23938 29921 29923 28
23939 29921 29924 28
23940 29921 29925 28
23941 29926 29927 28
23942 29926 29928 28
23943 29926 29929 28
23944 29926 29930 28
23945 29931 29932 28
23946 29931 29933 28
23947 29931 29934 28
23948 29931 29935 28
23949 29936 29937 28
23950 29936 29938 28
23951 29936 29939 28
23952 29936 29940 28
23953 29941 29942 28
23954 29941 29943 28
23955 29941 29944 28
23956 29941 29945 28
23957 29946 29947 28
23958 29946 29948 28
23959 29946 29949 28
23960 29946 29950 28
23961 29951 29952 28
23962 29951 29953 28
23963 29951 29954 28
23964 29951 29955 28
23965 29956 29957 28
23966 29956 29958 28
23967 29956 29959 28
23968 29956 29960 28
23969 29961 29962 28
23970 29961 29963 28
23971 29961 29964 28
23972 29961 29965 28
23973 29966 29967 28
23974 29966 29968 28
23975 29966 29969 28
23976 29966 29970 28
23977 29971 29972 28
23978 29971 29973 28
23979 29971 29974 28
23980 29971 29975 28
23981 29976 29977 28
23982 29976 29978 28
23983 29976 29979 28
23984 29976 29980 28
23985 29981 29982 28
23986 29981 29983 28
23987 29981 29984 28
23988 29981 29985 28
23989 29986 29987 28
23990 29986 29988 28
23991 29986 29989 28
23992 29986 29990 28
23993 29991 29992 28
23994 29991 29993 28
23995 29991 29994 28
23996 29991 29995 28
23997 29996 29997 28
23998 29996 29998 28
23999 29996 29999 28
24000 29996 30000 28
24001 30001 30002 28
24002 30001 30003 28
24003 30001 30004 28
24004 30001 30005 28
24005 30006 30007 28
24006 30006 30008 28
24007 30006 30009 28
24008 30006 30010 28
24009 30011 30012 28
24010 30011 30013 28
24011 30011 30014 28
24012 30011 30015 28
24013 30016 30017 28
24014 30016 30018 28
24015 30016 30019 28
24016 30016 30020 28
24017 30021 30022 28
24018 30021 30023 28
24019 30021 30024 28
24020 30021 30025 28
24021 30026 30027 28
24022 30026 30028 28
24023 30026 30029 28
24024 30026 30030 28
24025 30031 30032 28
24026 30031 30033 28
24027 30031 30034 28
24028 30031 30035 28
24029 30036 30037 28
24030 30036 30038 28
24031 30036 30039 28
24032 30036 30040 28
24033 30041 30042 28
24034 30041 30043 28
24035 30041 30044 28
24036 30041 30045 28
24037 30046 30047 28
24038 30046 30048 28
24039 30046 30049 28
24040 30046 30050 28
24041 30051 30052 28
24042 30051 30053 28
24043 30051 30054 28
24044 30051 30055 28
24045 30056 30057 28
24046 30056 30058 28
24047 30056 30059 28
24048 30056 30060 28
24049 30061 30062 28
24050 30061 30063 28
24051 30061 30064 28
24052 30061 30065 28
24053 30066 30067 28
24054 30066 30068 28
24055 30066 30069 28
24056 30066 30070 28
24057 30071 30072 28
24058 30071 30073 28
24059 30071 30074 28
24060 30071 30075 28
24061 30076 30077 28
24062 30076 30078 28
24063 30076 30079 28
24064 30076 30080 28
24065 30081 30082 28
24066 30081 30083 28
24067 30081 30084 28
24068 30081 30085 28
24069 30086 30087 28
24070 30086 30088 28
24071 30086 30089 28
24072 30086 30090 28
24073 30091 30092 28
24074 30091 30093 28
24075 30091 30094 28
24076 30091 30095 28
24077 30096 30097 28
24078 30096 30098 28
24079 30096 30099 28
24080 30096 30100 28
24081 30101 30102 28
24082 30101 30103 28
24083 30101 30104 28
24084 30101 30105 28
24085 30106 30107 28
24086 30106 30108 28
24087 30106 30109 28
24088 30106 30110 28
24089 30111 30112 28
24090 30111 30113 28
24091 30111 30114 28
24092 30111 30115 28
24093 30116 30117 28
24094 30116 30118 28
24095 30116 30119 28
24096 30116 30120 28
24097 30121 30122 28
24098 30121 30123 28
24099 30121 30124 28
24100 30121 30125 28
24101 30126 30127 28
24102 30126 30128 28
24103 30126 30129 28
24104 30126 30130 28
24105 30131 30132 28
24106 30131 30133 28
24107 30131 30134 28
24108 30131 30135 28
24109 30136 30137 28
24110 30136 30138 28
24111 30136 30139 28
24112 30136 30140 28
24113 30141 30142 28
24114 30141 30143 28
24115 30141 30144 28
24116 30141 30145 28
24117 30146 30147 28
24118 30146 30148 28
24119 30146 30149 28
24120 30146 30150 28
24121 30151 30152 28
24122 30151 30153 28
24123 30151 30154 28
24124 30151 30155 28
24125 30156 30157 28
24126 30156 30158 28
24127 30156 30159 28
24128 30156 30160 28
24129 30161 30162 28
24130 30161 30163 28
24131 30161 30164 28
24132 30161 30165 28
24133 30166 30167 28
24134 30166 30168 28
24135 30166 30169 28
24136 30166 30170 28
24137 30171 30172 28
24138 30171 30173 28
24139 30171 30174 28
24140 30171 30175 28
24141 30176 30177 28
24142 30176 30178 28
24143 30176 30179 28
24144 30176 30180 28
24145 30181 30182 28
24146 30181 30183 28
24147 30181 30184 28
24148 30181 30185 28
24149 30186 30187 28
24150 30186 30188 28
24151 30186 30189 28
24152 30186 30190 28
24153 30191 30192 28
24154 30191 30193 28
24155 30191 30194 28
24156 30191 30195 28
24157 30196 30197 28
24158 30196 30198 28
24159 30196 30199 28
24160 30196 30200 28
24161 30201 30202 28
24162 30201 30203 28
24163 30201 30204 28
24164 30201 30205 28
24165 30206 30207 28
24166 30206 30208 28
24167 30206 30209 28
24168 30206 30210 28
24169 30211 30212 28
24170 30211 30213 28
24171 30211 30214 28
24172 30211 30215 28
24173 30216 30217 28
24174 30216 30218 28
24175 30216 30219 28
24176 30216 30220 28
24177 30221 30222 28
24178 30221 30223 28
24179 30221 30224 28
24180 30221 30225 28
24181 30226 30227 28
24182 30226 30228 28
24183 30226 30229 28
24184 30226 30230 28
24185 30231 30232 28
24186 30231 30233 28
24187 30231 30234 28
24188 30231 30235 28
24189 30236 30237 28
24190 30236 30238 28
24191 30236 30239 28
24192 30236 30240 28
24193 30241 30242 28
24194 30241 30243 28
24195 30241 30244 28
24196 30241 30245 28
24197 30246 30247 28
24198 30246 30248 28
24199 30246 30249 28
24200 30246 30250 28
24201 30251 30252 28
24202 30251 30253 28
24203 30251 30254 28
24204 30251 30255 28
24205 30256 30257 28
24206 30256 30258 28
24207 30256 30259 28
24208 30256 30260 28
24209 30261 30262 28
24210 30261 30263 28
24211 30261 30264 28
24212 30261 30265 28
24213 30266 30267 28
24214 30266 30268 28
24215 30266 30269 28
24216 30266 30270 28
24217 30271 30272 28
24218 30271 30273 28
24219 30271 30274 28
24220 30271 30275 28
24221 30276 30277 28
24222 30276 30278 28
24223 30276 30279 28
24224 30276 30280 28
24225 30281 30282 28
24226 30281 30283 28
24227 30281 30284 28
24228 30281 30285 28
24229 30286 30287 28
24230 30286 30288 28
24231 30286 30289 28
24232 30286 30290 28
24233 30291 30292 28
24234 30291 30293 28
24235 30291 30294 28
24236 30291 30295 28
24237 30296 30297 28
24238 30296 30298 28
24239 30296 30299 28
24240 30296 30300 28
24241 30301 30302 28
24242 30301 30303 28
24243 30301 30304 28
24244 30301 30305 28
24245 30306 30307 28
24246 30306 30308 28
24247 30306 30309 28
24248 30306 30310 28
24249 30311 30312 28
24250 30311 30313 28
24251 30311 30314 28
24252 30311 30315 28
24253 30316 30317 28
24254 30316 30318 28
24255 30316 30319 28
24256 30316 30320 28
24257 30321 30322 28
24258 30321 30323 28
24259 30321 30324 28
24260 30321 30325 28
24261 30326 30327 28
24262 30326 30328 28
24263 30326 30329 28
24264 30326 30330 28
24265 30331 30332 28
24266 30331 30333 28
24267 30331 30334 28
24268 30331 30335 28
24269 30336 30337 28
24270 30336 30338 28
24271 30336 30339 28
24272 30336 30340 28
24273 30341 30342 28
24274 30341 30343 28
24275 30341 30344 28
24276 30341 30345 28
24277 30346 30347 28
24278 30346 30348 28
24279 30346 30349 28
24280 30346 30350 28
24281 30351 30352 28
24282 30351 30353 28
24283 30351 30354 28
24284 30351 30355 28
24285 30356 30357 28
24286 30356 30358 28
24287 30356 30359 28
24288 30356 30360 28
24289 30361 30362 28
24290 30361 30363 28
24291 30361 30364 28
24292 30361 30365 28
24293 30366 30367 28
24294 30366 30368 28
24295 30366 30369 28
24296 30366 30370 28
24297 30371 30372 28
24298 30371 30373 28
24299 30371 30374 28
24300 30371 30375 28
24301 30376 30377 28
24302 30376 30378 28
24303 30376 30379 28
24304 30376 30380 28
24305 30381 30382 28
24306 30381 30383 28
24307 30381 30384 28
24308 30381 30385 28
24309 30386 30387 28
24310 30386 30388 28
24311 30386 30389 28
24312 30386 30390 28
24313 30391 30392 28
24314 30391 30393 28
24315 30391 30394 28
24316 30391 30395 28
24317 30396 30397 28
24318 30396 30398 28
24319 30396 30399 28
24320 30396 30400 28
24321 30401 30402 28
24322 30401 30403 28
24323 30401 30404 28
24324 30401 30405 28
24325 30406 30407 28
24326 30406 30408 28
24327 30406 30409 28
24328 30406 30410 28
24329 30411 30412 28
24330 30411 30413 28
24331 30411 30414 28
24332 30411 30415 28
24333 30416 30417 28
24334 30416 30418 28
24335 30416 30419 28
24336 30416 30420 28
24337 30421 30422 28
24338 30421 30423 28
24339 30421 30424 28
24340 30421 30425 28
24341 30426 30427 28
24342 30426 30428 28
24343 30426 30429 28
24344 30426 30430 28
24345 30431 30432 28
24346 30431 30433 28
24347 30431 30434 28
24348 30431 30435 28
24349 30436 30437 28
24350 30436 30438 28
24351 30436 30439 28
24352 30436 30440 28
24353 30441 30442 28
24354 30441 30443 28
24355 30441 30444 28
24356 30441 30445 28
24357 30446 30447 28
24358 30446 30448 28
24359 30446 30449 28
24360 30446 30450 28
24361 30451 30452 28
24362 30451 30453 28
24363 30451 30454 28
24364 30451 30455 28
24365 30456 30457 28
24366 30456 30458 28
24367 30456 30459 28
24368 30456 30460 28
24369 30461 30462 28
24370 30461 30463 28
24371 30461 30464 28
24372 30461 30465 28
24373 30466 30467 28
24374 30466 30468 28
24375 30466 30469 28
24376 30466 30470 28
24377 30471 30472 28
24378 30471 30473 28
24379 30471 30474 28
24380 30471 30475 28
24381 30476 30477 28
24382 30476 30478 28
24383 30476 30479 28
24384 30476 30480 28
24385 30481 30482 28
24386 30481 30483 28
24387 30481 30484 28
24388 30481 30485 28
24389 30486 30487 28
24390 30486 30488 28
24391 30486 30489 28
24392 30486 30490 28
24393 30491 30492 28
24394 30491 30493 28
24395 30491 30494 28
24396 30491 30495 28
24397 30496 30497 28
24398 30496 30498 28
24399 30496 30499 28
24400 30496 30500 28
24401 30501 30502 28
24402 30501 30503 28
24403 30501 30504 28
24404 30501 30505 28
24405 30506 30507 28
24406 30506 30508 28
24407 30506 30509 28
24408 30506 30510 28
24409 30511 30512 28
24410 30511 30513 28
24411 30511 30514 28
24412 30511 30515 28
24413 30516 30517 28
24414 30516 30518 28
24415 30516 30519 28
24416 30516 30520 28
24417 30521 30522 28
24418 30521 30523 28
24419 30521 30524 28
24420 30521 30525 28
24421 30526 30527 28
24422 30526 30528 28
24423 30526 30529 28
24424 30526 30530 28
24425 30531 30532 28
24426 30531 30533 28
24427 30531 30534 28
24428 30531 30535 28
24429 30536 30537 28
24430 30536 30538 28
24431 30536 30539 28
24432 30536 30540 28
24433 30541 30542 28
24434 30541 30543 28
24435 30541 30544 28
24436 30541 30545 28
24437 30546 30547 28
24438 30546 30548 28
24439 30546 30549 28
24440 30546 30550 28
24441 30551 30552 28
24442 30551 30553 28
24443 30551 30554 28
24444 30551 30555 28
24445 30556 30557 28
24446 30556 30558 28
24447 30556 30559 28
24448 30556 30560 28
24449 30561 30562 28
24450 30561 30563 28
24451 30561 30564 28
24452 30561 30565 28
24453 30566 30567 28
24454 30566 30568 28
24455 30566 30569 28
24456 30566 30570 28
24457 30571 30572 28
24458 30571 30573 28
24459 30571 30574 28
24460 30571 30575 28
24461 30576 30577 28
24462 30576 30578 28
24463 30576 30579 28
24464 30576 30580 28
24465 30581 30582 28
24466 30581 30583 28
24467 30581 30584 28
24468 30581 30585 28
24469 30586 30587 28
24470 30586 30588 28
24471 30586 30589 28
24472 30586 30590 28
24473 30591 30592 28
24474 30591 30593 28
24475 30591 30594 28
24476 30591 30595 28
24477 30596 30597 28
24478 30596 30598 28
24479 30596 30599 28
24480 30596 30600 28
24481 30601 30602 28
24482 30601 30603 28
24483 30601 30604 28
24484 30601 30605 28
24485 30606 30607 28
24486 30606 30608 28
24487 30606 30609 28
24488 30606 30610 28
24489 30611 30612 28
24490 30611 30613 28
24491 30611 30614 28
24492 30611 30615 28
24493 30616 30617 28
24494 30616 30618 28
24495 30616 30619 28
24496 30616 30620 28
24497 30621 30622 28
24498 30621 30623 28
24499 30621 30624 28
24500 30621 30625 28
24501 30626 30627 28
24502 30626 30628 28
24503 30626 30629 28
24504 30626 30630 28
24505 30631 30632 28
24506 30631 30633 28
24507 30631 30634 28
24508 30631 30635 28
24509 30636 30637 28
24510 30636 30638 28
24511 30636 30639 28
24512 30636 30640 28
24513 30641 30642 28
24514 30641 30643 28
24515 30641 30644 28
24516 30641 30645 28
24517 30646 30647 28
24518 30646 30648 28
24519 30646 30649 28
24520 30646 30650 28
24521 30651 30652 28
24522 30651 30653 28
24523 30651 30654 28
24524 30651 30655 28
24525 30656 30657 28
24526 30656 30658 28
24527 30656 30659 28
24528 30656 30660 28
24529 30661 30662 28
24530 30661 30663 28
24531 30661 30664 28
24532 30661 30665 28
24533 30666 30667 28
24534 30666 30668 28
24535 30666 30669 28
24536 30666 30670 28
24537 30671 30672 28
24538 30671 30673 28
24539 30671 30674 28
24540 30671 30675 28
24541 30676 30677 28
24542 30676 30678 28
24543 30676 30679 28
24544 30676 30680 28
24545 30681 30682 28
24546 30681 30683 28
24547 30681 30684 28
24548 30681 30685 28
24549 30686 30687 28
24550 30686 30688 28
24551 30686 30689 28
24552 30686 30690 28
24553 30691 30692 28
24554 30691 30693 28
24555 30691 30694 28
24556 30691 30695 28
24557 30696 30697 28
24558 30696 30698 28
24559 30696 30699 28
24560 30696 30700 28
24561 30701 30702 28
24562 30701 30703 28
24563 30701 30704 28
24564 30701 30705 28
24565 30706 30707 28
24566 30706 30708 28
24567 30706 30709 28
24568 30706 30710 28
24569 30711 30712 28
24570 30711 30713 28
24571 30711 30714 28
24572 30711 30715 28
24573 30716 30717 28
24574 30716 30718 28
24575 30716 30719 28
24576 30716 30720 28
24577 30721 30722 28
24578 30721 30723 28
24579 30721 30724 28
24580 30721 30725 28
24581 30726 30727 28
24582 30726 30728 28
24583 30726 30729 28
24584 30726 30730 28
24585 30731 30732 28
24586 30731 30733 28
24587 30731 30734 28
24588 30731 30735 28
24589 30736 30737 28
24590 30736 30738 28
24591 30736 30739 28
24592 30736 30740 28
24593 30741 30742 28
24594 30741 30743 28
24595 30741 30744 28
24596 30741 30745 28
24597 30746 30747 28
24598 30746 30748 28
24599 30746 30749 28
24600 30746 30750 28
24601 30751 30752 28
24602 30751 30753 28
24603 30751 30754 28
24604 30751 30755 28
24605 30756 30757 28
24606 30756 30758 28
24607 30756 30759 28
24608 30756 30760 28
24609 30761 30762 28
24610 30761 30763 28
24611 30761 30764 28
24612 30761 30765 28
24613 30766 30767 28
24614 30766 30768 28
24615 30766 30769 28
24616 30766 30770 28
24617 30771 30772 28
24618 30771 30773 28
24619 30771 30774 28
24620 30771 30775 28
24621 30776 30777 28
24622 30776 30778 28
24623 30776 30779 28
24624 30776 30780 28
24625 30781 30782 28
24626 30781 30783 28
24627 30781 30784 28
24628 30781 30785 28
24629 30786 30787 28
24630 30786 30788 28
24631 30786 30789 28
24632 30786 30790 28
24633 30791 30792 28
24634 30791 30793 28
24635 30791 30794 28
24636 30791 30795 28
24637 30796 30797 28
24638 30796 30798 28
24639 30796 30799 28
24640 30796 30800 28
24641 30801 30802 28
24642 30801 30803 28
24643 30801 30804 28
24644 30801 30805 28
24645 30806 30807 28
24646 30806 30808 28
24647 30806 30809 28
24648 30806 30810 28
24649 30811 30812 28
24650 30811 30813 28
24651 30811 30814 28
24652 30811 30815 28
24653 30816 30817 28
24654 30816 30818 28
24655 30816 30819 28
24656 30816 30820 28
24657 30821 30822 28
24658 30821 30823 28
24659 30821 30824 28
24660 30821 30825 28
24661 30826 30827 28
24662 30826 30828 28
24663 30826 30829 28
24664 30826 30830 28
24665 30831 30832 28
24666 30831 30833 28
24667 30831 30834 28
24668 30831 30835 28
24669 30836 30837 28
24670 30836 30838 28
24671 30836 30839 28
24672 30836 30840 28
24673 30841 30842 28
24674 30841 30843 28
24675 30841 30844 28
24676 30841 30845 28
24677 30846 30847 28
24678 30846 30848 28
24679 30846 30849 28
24680 30846 30850 28
24681 30851 30852 28
24682 30851 30853 28
24683 30851 30854 28
24684 30851 30855 28
24685 30856 30857 28
24686 30856 30858 28
24687 30856 30859 28
24688 30856 30860 28
24689 30861 30862 28
24690 30861 30863 28
24691 30861 30864 28
24692 30861 30865 28
24693 30866 30867 28
24694 30866 30868 28
24695 30866 30869 28
24696 30866 30870 28
24697 30871 30872 28
24698 30871 30873 28
24699 30871 30874 28
24700 30871 30875 28
24701 30876 30877 28
24702 30876 30878 28
24703 30876 30879 28
24704 30876 30880 28
24705 30881 30882 28
24706 30881 30883 28
24707 30881 30884 28
24708 30881 30885 28
24709 30886 30887 28
24710 30886 30888 28
24711 30886 30889 28
24712 30886 30890 28
24713 30891 30892 28
24714 30891 30893 28
24715 30891 30894 28
24716 30891 30895 28
24717 30896 30897 28
24718 30896 30898 28
24719 30896 30899 28
24720 30896 30900 28
24721 30901 30902 28
24722 30901 30903 28
24723 30901 30904 28
24724 30901 30905 28
24725 30906 30907 28
24726 30906 30908 28
24727 30906 30909 28
24728 30906 30910 28
24729 30911 30912 28
24730 30911 30913 28
24731 30911 30914 28
24732 30911 30915 28
24733 30916 30917 28
24734 30916 30918 28
24735 30916 30919 28
24736 30916 30920 28
24737 30921 30922 28
24738 30921 30923 28
24739 30921 30924 28
24740 30921 30925 28
24741 30926 30927 28
24742 30926 30928 28
24743 30926 30929 28
24744 30926 30930 28
24745 30931 30932 28
24746 30931 30933 28
24747 30931 30934 28
24748 30931 30935 28
24749 30936 30937 28
24750 30936 30938 28
24751 30936 30939 28
24752 30936 30940 28
24753 30941 30942 28
24754 30941 30943 28
24755 30941 30944 28
24756 30941 30945 28
24757 30946 30947 28
24758 30946 30948 28
24759 30946 30949 28
24760 30946 30950 28
24761 30951 30952 28
24762 30951 30953 28
24763 30951 30954 28
24764 30951 30955 28
24765 30956 30957 28
24766 30956 30958 28
24767 30956 30959 28
24768 30956 30960 28
24769 30961 30962 28
24770 30961 30963 28
24771 30961 30964 28
24772 30961 30965 28
24773 30966 30967 28
24774 30966 30968 28
24775 30966 30969 28
24776 30966 30970 28
24777 30971 30972 28
24778 30971 30973 28
24779 30971 30974 28
24780 30971 30975 28
24781 30976 30977 28
24782 30976 30978 28
24783 30976 30979 28
24784 30976 30980 28
24785 30981 30982 28
24786 30981 30983 28
24787 30981 30984 28
24788 30981 30985 28
24789 30986 30987 28
24790 30986 30988 28
24791 30986 30989 28
24792 30986 30990 28
24793 30991 30992 28
24794 30991 30993 28
24795 30991 30994 28
24796 30991 30995 28
24797 30996 30997 28
24798 30996 30998 28
24799 30996 30999 28
24800 30996 31000 28
24801 31001 31002 28
24802 31001 31003 28
24803 31001 31004 28
24804 31001 31005 28
24805 31006 31007 28
24806 31006 31008 28
24807 31006 31009 28
24808 31006 31010 28
24809 31011 31012 28
24810 31011 31013 28
24811 31011 31014 28
24812 31011 31015 28
24813 31016 31017 28
24814 31016 31018 28
24815 31016 31019 28
24816 31016 31020 28
24817 31021 31022 28
24818 31021 31023 28
24819 31021 31024 28
24820 31021 31025 28
24821 31026 31027 28
24822 31026 31028 28
24823 31026 31029 28
24824 31026 31030 28
24825 31031 31032 28
24826 31031 31033 28
24827 31031 31034 28
24828 31031 31035 28
24829 31036 31037 28
24830 31036 31038 28
24831 31036 31039 28
24832 31036 31040 28
24833 31041 31042 28
24834 31041 31043 28
24835 31041 31044 28
24836 31041 31045 28
24837 31046 31047 28
24838 31046 31048 28
24839 31046 31049 28
24840 31046 31050 28
24841 31051 31052 28
24842 31051 31053 28
24843 31051 31054 28
24844 31051 31055 28
24845 31056 31057 28
24846 31056 31058 28
24847 31056 31059 28
24848 31056 31060 28
24849 31061 31062 28
24850 31061 31063 28
24851 31061 31064 28
24852 31061 31065 28
24853 31066 31067 28
24854 31066 31068 28
24855 31066 31069 28
24856 31066 31070 28
24857 31071 31072 28
24858 31071 31073 28
24859 31071 31074 28
24860 31071 31075 28
24861 31076 31077 28
24862 31076 31078 28
24863 31076 31079 28
24864 31076 31080 28
24865 31081 31082 28
24866 31081 31083 28
24867 31081 31084 28
24868 31081 31085 28
24869 31086 31087 28
24870 31086 31088 28
24871 31086 31089 28
24872 31086 31090 28
24873 31091 31092 28
24874 31091 31093 28
24875 31091 31094 28
24876 31091 31095 28
24877 31096 31097 28
24878 31096 31098 28
24879 31096 31099 28
24880 31096 31100 28
24881 31101 31102 28
24882 31101 31103 28
24883 31101 31104 28
24884 31101 31105 28
24885 31106 31107 28
24886 31106 31108 28
24887 31106 31109 28
24888 31106 31110 28
24889 31111 31112 28
24890 31111 31113 28
24891 31111 31114 28
24892 31111 31115 28
24893 31116 31117 28
24894 31116 31118 28
24895 31116 31119 28
24896 31116 31120 28
24897 31121 31122 28
24898 31121 31123 28
24899 31121 31124 28
24900 31121 31125 28
24901 31126 31127 28
24902 31126 31128 28
24903 31126 31129 28
24904 31126 31130 28
24905 31131 31132 28
24906 31131 31133 28
24907 31131 31134 28
24908 31131 31135 28
24909 31136 31137 28
24910 31136 31138 28
24911 31136 31139 28
24912 31136 31140 28
24913 31141 31142 28
24914 31141 31143 28
24915 31141 31144 28
24916 31141 31145 28
24917 31146 31147 28
24918 31146 31148 28
24919 31146 31149 28
24920 31146 31150 28
24921 31151 31152 28
24922 31151 31153 28
24923 31151 31154 28
24924 31151 31155 28
24925 31156 31157 28
24926 31156 31158 28
24927 31156 31159 28
24928 31156 31160 28
24929 31161 31162 28
24930 31161 31163 28
24931 31161 31164 28
24932 31161 31165 28
24933 31166 31167 28
24934 31166 31168 28
24935 31166 31169 28
24936 31166 31170 28
24937 31171 31172 28
24938 31171 31173 28
24939 31171 31174 28
24940 31171 31175 28
24941 31176 31177 28
24942 31176 31178 28
24943 31176 31179 28
24944 31176 31180 28
24945 31181 31182 28
24946 31181 31183 28
24947 31181 31184 28
24948 31181 31185 28
24949 31186 31187 28
24950 31186 31188 28
24951 31186 31189 28
24952 31186 31190 28
24953 31191 31192 28
24954 31191 31193 28
24955 31191 31194 28
24956 31191 31195 28
24957 31196 31197 28
24958 31196 31198 28
24959 31196 31199 28
24960 31196 31200 28
24961 31201 31202 28
24962 31201 31203 28
24963 31201 31204 28
24964 31201 31205 28
24965 31206 31207 28
24966 31206 31208 28
24967 31206 31209 28
24968 31206 31210 28
24969 31211 31212 28
24970 31211 31213 28
24971 31211 31214 28
24972 31211 31215 28
24973 31216 31217 28
24974 31216 31218 28
24975 31216 31219 28
24976 31216 31220 28
24977 31221 31222 28
24978 31221 31223 28
24979 31221 31224 28
24980 31221 31225 28
24981 31226 31227 28
24982 31226 31228 28
24983 31226 31229 28
24984 31226 31230 28
24985 31231 31232 28
24986 31231 31233 28
24987 31231 31234 28
24988 31231 31235 28
24989 31236 31237 28
24990 31236 31238 28
24991 31236 31239 28
24992 31236 31240 28
24993 31241 31242 28
24994 31241 31243 28
24995 31241 31244 28
24996 31241 31245 28
24997 31246 31247 28
24998 31246 31248 28
24999 31246 31249 28
25000 31246 31250 28
25001 31251 31252 28
25002 31251 31253 28
25003 31251 31254 28
25004 31251 31255 28
25005 31256 31257 28
25006 31256 31258 28
25007 31256 31259 28
25008 31256 31260 28
25009 31261 31262 28
25010 31261 31263 28
25011 31261 31264 28
25012 31261 31265 28
25013 31266 31267 28
25014 31266 31268 28
25015 31266 31269 28
25016 31266 31270 28
25017 31271 31272 28
25018 31271 31273 28
25019 31271 31274 28
25020 31271 31275 28
25021 31276 31277 28
25022 31276 31278 28
25023 31276 31279 28
25024 31276 31280 28
25025 31281 31282 28
25026 31281 31283 28
25027 31281 31284 28
25028 31281 31285 28
25029 31286 31287 28
25030 31286 31288 28
25031 31286 31289 28
25032 31286 31290 28
25033 31291 31292 28
25034 31291 31293 28
25035 31291 31294 28
25036 31291 31295 28
25037 31296 31297 28
25038 31296 31298 28
25039 31296 31299 28
25040 31296 31300 28
25041 31301 31302 28
25042 31301 31303 28
25043 31301 31304 28
25044 31301 31305 28
25045 31306 31307 28
25046 31306 31308 28
25047 31306 31309 28
25048 31306 31310 28
25049 31311 31312 28
25050 31311 31313 28
25051 31311 31314 28
25052 31311 31315 28
25053 31316 31317 28
25054 31316 31318 28
25055 31316 31319 28
25056 31316 31320 28
25057 31321 31322 28
25058 31321 31323 28
25059 31321 31324 28
25060 31321 31325 28
25061 31326 31327 28
25062 31326 31328 28
25063 31326 31329 28
25064 31326 31330 28
25065 31331 31332 28
25066 31331 31333 28
25067 31331 31334 28
25068 31331 31335 28
25069 31336 31337 28
25070 31336 31338 28
25071 31336 31339 28
25072 31336 31340 28
25073 31341 31342 28
25074 31341 31343 28
25075 31341 31344 28
25076 31341 31345 28
25077 31346 31347 28
25078 31346 31348 28
25079 31346 31349 28
25080 31346 31350 28
25081 31351 31352 28
25082 31351 31353 28
25083 31351 31354 28
25084 31351 31355 28
25085 31356 31357 28
25086 31356 31358 28
25087 31356 31359 28
25088 31356 31360 28
25089 31361 31362 28
25090 31361 31363 28
25091 31361 31364 28
25092 31361 31365 28
25093 31366 31367 28
25094 31366 31368 28
25095 31366 31369 28
25096 31366 31370 28
25097 31371 31372 28
25098 31371 31373 28
25099 31371 31374 28
25100 31371 31375 28
25101 31376 31377 28
25102 31376 31378 28
25103 31376 31379 28
25104 31376 31380 28
25105 31381 31382 28
25106 31381 31383 28
25107 31381 31384 28
25108 31381 31385 28
25109 31386 31387 28
25110 31386 31388 28
25111 31386 31389 28
25112 31386 31390 28
25113 31391 31392 28
25114 31391 31393 28
25115 31391 31394 28
25116 31391 31395 28
25117 31396 31397 28
25118 31396 31398 28
25119 31396 31399 28
25120 31396 31400 28
25121 31401 31402 28
25122 31401 31403 28
25123 31401 31404 28
25124 31401 31405 28
25125 31406 31407 28
25126 31406 31408 28
25127 31406 31409 28
25128 31406 31410 28
25129 31411 31412 28
25130 31411 31413 28
25131 31411 31414 28
25132 31411 31415 28
25133 31416 31417 28
25134 31416 31418 28
25135 31416 31419 28
25136 31416 31420 28
25137 31421 31422 28
25138 31421 31423 28
25139 31421 31424 28
25140 31421 31425 28
25141 31426 31427 28
25142 31426 31428 28
25143 31426 31429 28
25144 31426 31430 28
25145 31431 31432 28
25146 31431 31433 28
25147 31431 31434 28
25148 31431 31435 28
25149 31436 31437 28
25150 31436 31438 28
25151 31436 31439 28
25152 31436 31440 28
25153 31441 31442 28
25154 31441 31443 28
25155 31441 31444 28
25156 31441 31445 28
25157 31446 31447 28
25158 31446 31448 28
25159 31446 31449 28
25160 31446 31450 28
25161 31451 31452 28
25162 31451 31453 28
25163 31451 31454 28
25164 31451 31455 28
25165 31456 31457 28
25166 31456 31458 28
25167 31456 31459 28
25168 31456 31460 28
25169 31461 31462 28
25170 31461 31463 28
25171 31461 31464 28
25172 31461 31465 28
25173 31466 31467 28
25174 31466 31468 28
25175 31466 31469 28
25176 31466 31470 28
25177 31471 31472 28
25178 31471 31473 28
25179 31471 31474 28
25180 31471 31475 28
25181 31476 31477 28
25182 31476 31478 28
25183 31476 31479 28
25184 31476 31480 28
25185 31481 31482 28
25186 31481 31483 28
25187 31481 31484 28
25188 31481 31485 28
25189 31486 31487 28
25190 31486 31488 28
25191 31486 31489 28
25192 31486 31490 28
25193 31491 31492 28
25194 31491 31493 28
25195 31491 31494 28
25196 31491 31495 28
25197 31496 31497 28
25198 31496 31498 28
25199 31496 31499 28
25200 31496 31500 28
25201 31501 31502 28
25202 31501 31503 28
25203 31501 31504 28
25204 31501 31505 28
25205 31506 31507 28
25206 31506 31508 28
25207 31506 31509 28
25208 31506 31510 28
25209 31511 31512 28
25210 31511 31513 28
25211 31511 31514 28
25212 31511 31515 28
25213 31516 31517 28
25214 31516 31518 28
25215 31516 31519 28
25216 31516 31520 28
25217 31521 31522 28
25218 31521 31523 28
25219 31521 31524 28
25220 31521 31525 28
25221 31526 31527 28
25222 31526 31528 28
25223 31526 31529 28
25224 31526 31530 28
25225 31531 31532 28
25226 31531 31533 28
25227 31531 31534 28
25228 31531 31535 28
25229 31536 31537 28
25230 31536 31538 28
25231 31536 31539 28
25232 31536 31540 28
25233 31541 31542 28
25234 31541 31543 28
25235 31541 31544 28
25236 31541 31545 28
25237 31546 31547 28
25238 31546 31548 28
25239 31546 31549 28
25240 31546 31550 28
25241 31551 31552 28
25242 31551 31553 28
25243 31551 31554 28
25244 31551 31555 28
25245 31556 31557 28
25246 31556 31558 28
25247 31556 31559 28
25248 31556 31560 28
25249 31561 31562 28
25250 31561 31563 28
25251 31561 31564 28
25252 31561 31565 28
25253 31566 31567 28
25254 31566 31568 28
25255 31566 31569 28
25256 31566 31570 28
25257 31571 31572 28
25258 31571 31573 28
25259 31571 31574 28
25260 31571 31575 28
25261 31576 31577 28
25262 31576 31578 28
25263 31576 31579 28
25264 31576 31580 28
25265 31581 31582 28
25266 31581 31583 28
25267 31581 31584 28
25268 31581 31585 28
25269 31586 31587 28
25270 31586 31588 28
25271 31586 31589 28
25272 31586 31590 28
25273 31591 31592 28
25274 31591 31593 28
25275 31591 31594 28
25276 31591 31595 28
25277 31596 31597 28
25278 31596 31598 28
25279 31596 31599 28
25280 31596 31600 28
25281 31601 31602 28
25282 31601 31603 28
25283 31601 31604 28
25284 31601 31605 28
25285 31606 31607 28
25286 31606 31608 28
25287 31606 31609 28
25288 31606 31610 28
25289 31611 31612 28
25290 31611 31613 28
25291 31611 31614 28
25292 31611 31615 28
25293 31616 31617 28
25294 31616 31618 28
25295 31616 31619 28
25296 31616 31620 28
25297 31621 31622 28
25298 31621 31623 28
25299 31621 31624 28
25300 31621 31625 28
25301 31626 31627 28
25302 31626 31628 28
25303 31626 31629 28
25304 31626 31630 28
25305 31631 31632 28
25306 31631 31633 28
25307 31631 31634 28
25308 31631 31635 28
25309 31636 31637 28
25310 31636 31638 28
25311 31636 31639 28
25312 31636 31640 28
25313 31641 31642 28
25314 31641 31643 28
25315 31641 31644 28
25316 31641 31645 28
25317 31646 31647 28
25318 31646 31648 28
25319 31646 31649 28
25320 31646 31650 28
25321 31651 31652 28
25322 31651 31653 28
25323 31651 31654 28
25324 31651 31655 28
25325 31656 31657 28
25326 31656 31658 28
25327 31656 31659 28
25328 31656 31660 28
25329 31661 31662 28
25330 31661 31663 28
25331 31661 31664 28
25332 31661 31665 28
25333 31666 31667 28
25334 31666 31668 28
25335 31666 31669 28
25336 31666 31670 28
25337 31671 31672 28
25338 31671 31673 28
25339 31671 31674 28
25340 31671 31675 28
25341 31676 31677 28
25342 31676 31678 28
25343 31676 31679 28
25344 31676 31680 28
25345 31681 31682 28
25346 31681 31683 28
25347 31681 31684 28
25348 31681 31685 28
25349 31686 31687 28
25350 31686 31688 28
25351 31686 31689 28
25352 31686 31690 28
25353 31691 31692 28
25354 31691 31693 28
25355 31691 31694 28
25356 31691 31695 28
25357 31696 31697 28
25358 31696 31698 28
25359 31696 31699 28
25360 31696 31700 28
25361 31701 31702 28
25362 31701 31703 28
25363 31701 31704 28
25364 31701 31705 28
25365 31706 31707 28
25366 31706 31708 28
25367 31706 31709 28
25368 31706 31710 28
25369 31711 31712 28
25370 31711 31713 28
25371 31711 31714 28
25372 31711 31715 28
25373 31716 31717 28
25374 31716 31718 28
25375 31716 31719 28
25376 31716 31720 28
25377 31721 31722 28
25378 31721 31723 28
25379 31721 31724 28
25380 31721 31725 28
25381 31726 31727 28
25382 31726 31728 28
25383 31726 31729 28
25384 31726 31730 28
25385 31731 31732 28
25386 31731 31733 28
25387 31731 31734 28
25388 31731 31735 28
25389 31736 31737 28
25390 31736 31738 28
25391 31736 31739 28
25392 31736 31740 28
25393 31741 31742 28
25394 31741 31743 28
25395 31741 31744 28
25396 31741 31745 28
25397 31746 31747 28
25398 31746 31748 28
25399 31746 31749 28
25400 31746 31750 28
25401 31751 31752 28
25402 31751 31753 28
25403 31751 31754 28
25404 31751 31755 28
25405 31756 31757 28
25406 31756 31758 28
25407 31756 31759 28
25408 31756 31760 28
25409 31761 31762 28
25410 31761 31763 28
25411 31761 31764 28
25412 31761 31765 28
25413 31766 31767 28
25414 31766 31768 28
25415 31766 31769 28
25416 31766 31770 28
25417 31771 31772 28
25418 31771 31773 28
25419 31771 31774 28
25420 31771 31775 28
25421 31776 31777 28
25422 31776 31778 28
25423 31776 31779 28
25424 31776 31780 28
25425 31781 31782 28
25426 31781 31783 28
25427 31781 31784 28
25428 31781 31785 28
25429 31786 31787 28
25430 31786 31788 28
25431 31786 31789 28
25432 31786 31790 28
25433 31791 31792 28
25434 31791 31793 28
25435 31791 31794 28
25436 31791 31795 28
25437 31796 31797 28
25438 31796 31798 28
25439 31796 31799 28
25440 31796 31800 28
25441 31801 31802 28
25442 31801 31803 28
25443 31801 31804 28
25444 31801 31805 28
25445 31806 31807 28
25446 31806 31808 28
25447 31806 31809 28
25448 31806 31810 28
25449 31811 31812 28
25450 31811 31813 28
25451 31811 31814 28
25452 31811 31815 28
25453 31816 31817 28
25454 31816 31818 28
25455 31816 31819 28
25456 31816 31820 28
25457 31821 31822 28
25458 31821 31823 28
25459 31821 31824 28
25460 31821 31825 28
25461 31826 31827 28
25462 31826 31828 28
25463 31826 31829 28
25464 31826 31830 28
25465 31831 31832 28
25466 31831 31833 28
25467 31831 31834 28
25468 31831 31835 28
25469 31836 31837 28
25470 31836 31838 28
25471 31836 31839 28
25472 31836 31840 28
25473 31841 31842 28
25474 31841 31843 28
25475 31841 31844 28
25476 31841 31845 28
25477 31846 31847 28
25478 31846 31848 28
25479 31846 31849 28
25480 31846 31850 28
25481 31851 31852 28
25482 31851 31853 28
25483 31851 31854 28
25484 31851 31855 28
25485 31856 31857 28
25486 31856 31858 28
25487 31856 31859 28
25488 31856 31860 28
25489 31861 31862 28
25490 31861 31863 28
25491 31861 31864 28
25492 31861 31865 28
25493 31866 31867 28
25494 31866 31868 28
25495 31866 31869 28
25496 31866 31870 28
25497 31871 31872 28
25498 31871 31873 28
25499 31871 31874 28
25500 31871 31875 28
25501 31876 31877 28
25502 31876 31878 28
25503 31876 31879 28
25504 31876 31880 28
25505 31881 31882 28
25506 31881 31883 28
25507 31881 31884 28
25508 31881 31885 28
25509 31886 31887 28
25510 31886 31888 28
25511 31886 31889 28
25512 31886 31890 28
25513 31891 31892 28
25514 31891 31893 28
25515 31891 31894 28
25516 31891 31895 28
25517 31896 31897 28
25518 31896 31898 28
25519 31896 31899 28
25520 31896 31900 28
25521 31901 31902 28
25522 31901 31903 28
25523 31901 31904 28
25524 31901 31905 28
25525 31906 31907 28
25526 31906 31908 28
25527 31906 31909 28
25528 31906 31910 28
25529 31911 31912 28
25530 31911 31913 28
25531 31911 31914 28
25532 31911 31915 28
25533 31916 31917 28
25534 31916 31918 28
25535 31916 31919 28
25536 31916 31920 28
25537 31921 31922 28
25538 31921 31923 28
25539 31921 31924 28
25540 31921 31925 28
25541 31926 31927 28
25542 31926 31928 28
25543 31926 31929 28
25544 31926 31930 28
25545 31931 31932 28
25546 31931 31933 28
25547 31931 31934 28
25548 31931 31935 28
25549 31936 31937 28
25550 31936 31938 28
25551 31936 31939 28
25552 31936 31940 28
25553 31941 31942 28
25554 31941 31943 28
25555 31941 31944 28
25556 31941 31945 28
25557 31946 31947 28
25558 31946 31948 28
25559 31946 31949 28
25560 31946 31950 28
25561 31951 31952 28
25562 31951 31953 28
25563 31951 31954 28
25564 31951 31955 28
25565 31956 31957 28
25566 31956 31958 28
25567 31956 31959 28
25568 31956 31960 28
25569 31961 31962 28
25570 31961 31963 28
25571 31961 31964 28
25572 31961 31965 28
25573 31966 31967 28
25574 31966 31968 28
25575 31966 31969 28
25576 31966 31970 28
25577 31971 31972 28
25578 31971 31973 28
25579 31971 31974 28
25580 31971 31975 28
25581 31976 31977 28
25582 31976 31978 28
25583 31976 31979 28
25584 31976 31980 28
25585 31981 31982 28
25586 31981 31983 28
25587 31981 31984 28
25588 31981 31985 28
25589 31986 31987 28
25590 31986 31988 28
25591 31986 31989 28
25592 31986 31990 28
25593 31991 31992 28
25594 31991 31993 28
25595 31991 31994 28
25596 31991 31995 28
25597 31996 31997 28
25598 31996 31998 28
25599 31996 31999 28
25600 31996 32000 28
25601 32001 32002 28
25602 32001 32003 28
25603 32001 32004 28
25604 32001 32005 28
25605 32006 32007 28
25606 32006 32008 28
25607 32006 32009 28
25608 32006 32010 28
25609 32011 32012 28
25610 32011 32013 28
25611 32011 32014 28
25612 32011 32015 28
25613 32016 32017 28
25614 32016 32018 28
25615 32016 32019 28
25616 32016 32020 28
25617 32021 32022 28
25618 32021 32023 28
25619 32021 32024 28
25620 32021 32025 28
25621 32026 32027 28
25622 32026 32028 28
25623 32026 32029 28
25624 32026 32030 28
25625 32031 32032 28
25626 32031 32033 28
25627 32031 32034 28
25628 32031 32035 28
25629 32036 32037 28
25630 32036 32038 28
25631 32036 32039 28
25632 32036 32040 28
25633 32041 32042 28
25634 32041 32043 28
25635 32041 32044 28
25636 32041 32045 28
25637 32046 32047 28
25638 32046 32048 28
25639 32046 32049 28
25640 32046 32050 28
25641 32051 32052 28
25642 32051 32053 28
25643 32051 32054 28
25644 32051 32055 28
25645 32056 32057 28
25646 32056 32058 28
25647 32056 32059 28
25648 32056 32060 28
25649 32061 32062 28
25650 32061 32063 28
25651 32061 32064 28
25652 32061 32065 28
25653 32066 32067 28
25654 32066 32068 28
25655 32066 32069 28
25656 32066 32070 28
25657 32071 32072 28
25658 32071 32073 28
25659 32071 32074 28
25660 32071 32075 28
25661 32076 32077 28
25662 32076 32078 28
25663 32076 32079 28
25664 32076 32080 28
25665 32081 32082 28
25666 32081 32083 28
25667 32081 32084 28
25668 32081 32085 28
25669 32086 32087 28
25670 32086 32088 28
25671 32086 32089 28
25672 32086 32090 28
25673 32091 32092 28
25674 32091 32093 28
25675 32091 32094 28
25676 32091 32095 28
25677 32096 32097 28
25678 32096 32098 28
25679 32096 32099 28
25680 32096 32100 28
25681 32101 32102 28
25682 32101 32103 28
25683 32101 32104 28
25684 32101 32105 28
25685 32106 32107 28
25686 32106 32108 28
25687 32106 32109 28
25688 32106 32110 28
25689 32111 32112 28
25690 32111 32113 28
25691 32111 32114 28
25692 32111 32115 28
25693 32116 32117 28
25694 32116 32118 28
25695 32116 32119 28
25696 32116 32120 28
25697 32121 32122 28
25698 32121 32123 28
25699 32121 32124 28
25700 32121 32125 28
25701 32126 32127 28
25702 32126 32128 28
25703 32126 32129 28
25704 32126 32130 28
25705 32131 32132 28
25706 32131 32133 28
25707 32131 32134 28
25708 32131 32135 28
25709 32136 32137 28
25710 32136 32138 28
25711 32136 32139 28
25712 32136 32140 28
25713 32141 32142 28
25714 32141 32143 28
25715 32141 32144 28
25716 32141 32145 28
25717 32146 32147 28
25718 32146 32148 28
25719 32146 32149 28
25720 32146 32150 28
25721 32151 32152 28
25722 32151 32153 28
25723 32151 32154 28
25724 32151 32155 28
25725 32156 32157 28
25726 32156 32158 28
25727 32156 32159 28
25728 32156 32160 28
25729 32161 32162 28
25730 32161 32163 28
25731 32161 32164 28
25732 32161 32165 28
25733 32166 32167 28
25734 32166 32168 28
25735 32166 32169 28
25736 32166 32170 28
25737 32171 32172 28
25738 32171 32173 28
25739 32171 32174 28
25740 32171 32175 28
25741 32176 32177 28
25742 32176 32178 28
25743 32176 32179 28
25744 32176 32180 28
25745 32181 32182 28
25746 32181 32183 28
25747 32181 32184 28
25748 32181 32185 28
25749 32186 32187 28
25750 32186 32188 28
25751 32186 32189 28
25752 32186 32190 28
25753 32191 32192 28
25754 32191 32193 28
25755 32191 32194 28
25756 32191 32195 28
25757 32196 32197 28
25758 32196 32198 28
25759 32196 32199 28
25760 32196 32200 28
25761 32201 32202 28
25762 32201 32203 28
25763 32201 32204 28
25764 32201 32205 28
25765 32206 32207 28
25766 32206 32208 28
25767 32206 32209 28
25768 32206 32210 28
25769 32211 32212 28
25770 32211 32213 28
25771 32211 32214 28
25772 32211 32215 28
25773 32216 32217 28
25774 32216 32218 28
25775 32216 32219 28
25776 32216 32220 28
25777 32221 32222 28
25778 32221 32223 28
25779 32221 32224 28
25780 32221 32225 28
25781 32226 32227 28
25782 32226 32228 28
25783 32226 32229 28
25784 32226 32230 28
25785 32231 32232 28
25786 32231 32233 28
25787 32231 32234 28
25788 32231 32235 28
25789 32236 32237 28
25790 32236 32238 28
25791 32236 32239 28
25792 32236 32240 28
25793 32241 32242 28
25794 32241 32243 28
25795 32241 32244 28
25796 32241 32245 28
25797 32246 32247 28
25798 32246 32248 28
25799 32246 32249 28
25800 32246 32250 28
25801 32251 32252 28
25802 32251 32253 28
25803 32251 32254 28
25804 32251 32255 28
25805 32256 32257 28
25806 32256 32258 28
25807 32256 32259 28
25808 32256 32260 28
25809 32261 32262 28
25810 32261 32263 28
25811 32261 32264 28
25812 32261 32265 28
25813 32266 32267 28
25814 32266 32268 28
25815 32266 32269 28
25816 32266 32270 28
25817 32271 32272 28
25818 32271 32273 28
25819 32271 32274 28
25820 32271 32275 28
25821 32276 32277 28
25822 32276 32278 28
25823 32276 32279 28
25824 32276 32280 28
25825 32281 32282 28
25826 32281 32283 28
25827 32281 32284 28
25828 32281 32285 28
25829 32286 32287 28
25830 32286 32288 28
25831 32286 32289 28
25832 32286 32290 28
25833 32291 32292 28
25834 32291 32293 28
25835 32291 32294 28
25836 32291 32295 28
25837 32296 32297 28
25838 32296 32298 28
25839 32296 32299 28
25840 32296 32300 28
25841 32301 32302 28
25842 32301 32303 28
25843 32301 32304 28
25844 32301 32305 28
25845 32306 32307 28
25846 32306 32308 28
25847 32306 32309 28
25848 32306 32310 28
25849 32311 32312 28
25850 32311 32313 28
25851 32311 32314 28
25852 32311 32315 28
25853 32316 32317 28
25854 32316 32318 28
25855 32316 32319 28
25856 32316 32320 28
25857 32321 32322 28
25858 32321 32323 28
25859 32321 32324 28
25860 32321 32325 28
25861 32326 32327 28
25862 32326 32328 28
25863 32326 32329 28
25864 32326 32330 28
25865 32331 32332 28
25866 32331 32333 28
25867 32331 32334 28
25868 32331 32335 28
25869 32336 32337 28
25870 32336 32338 28
25871 32336 32339 28
25872 32336 32340 28
25873 32341 32342 28
25874 32341 32343 28
25875 32341 32344 28
25876 32341 32345 28
25877 32346 32347 28
25878 32346 32348 28
25879 32346 32349 28
25880 32346 32350 28
25881 32351 32352 28
25882 32351 32353 28
25883 32351 32354 28
25884 32351 32355 28
25885 32356 32357 28
25886 32356 32358 28
25887 32356 32359 28
25888 32356 32360 28
25889 32361 32362 28
25890 32361 32363 28
25891 32361 32364 28
25892 32361 32365 28
25893 32366 32367 28
25894 32366 32368 28
25895 32366 32369 28
25896 32366 32370 28
25897 32371 32372 28
25898 32371 32373 28
25899 32371 32374 28
25900 32371 32375 28
25901 32376 32377 28
25902 32376 32378 28
25903 32376 32379 28
25904 32376 32380 28
25905 32381 32382 28
25906 32381 32383 28
25907 32381 32384 28
25908 32381 32385 28
25909 32386 32387 28
25910 32386 32388 28
25911 32386 32389 28
25912 32386 32390 28
25913 32391 32392 28
25914 32391 32393 28
25915 32391 32394 28
25916 32391 32395 28
25917 32396 32397 28
25918 32396 32398 28
25919 32396 32399 28
25920 32396 32400 28
25921 32401 32402 28
25922 32401 32403 28
25923 32401 32404 28
25924 32401 32405 28
25925 32406 32407 28
25926 32406 32408 28
25927 32406 32409 28
25928 32406 32410 28
25929 32411 32412 28
25930 32411 32413 28
25931 32411 32414 28
25932 32411 32415 28
25933 32416 32417 28
25934 32416 32418 28
25935 32416 32419 28
25936 32416 32420 28
25937 32421 32422 28
25938 32421 32423 28
25939 32421 32424 28
25940 32421 32425 28
25941 32426 32427 28
25942 32426 32428 28
25943 32426 32429 28
25944 32426 32430 28
25945 32431 32432 28
25946 32431 32433 28
25947 32431 32434 28
25948 32431 32435 28
25949 32436 32437 28
25950 32436 32438 28
25951 32436 32439 28
25952 32436 32440 28
25953 32441 32442 28
25954 32441 32443 28
25955 32441 32444 28
25956 32441 32445 28
25957 32446 32447 28
25958 32446 32448 28
25959 32446 32449 28
25960 32446 32450 28
25961 32451 32452 28
25962 32451 32453 28
25963 32451 32454 28
25964 32451 32455 28
25965 32456 32457 28
25966 32456 32458 28
25967 32456 32459 28
25968 32456 32460 28
25969 32461 32462 28
25970 32461 32463 28
25971 32461 32464 28
25972 32461 32465 28
25973 32466 32467 28
25974 32466 32468 28
25975 32466 32469 28
25976 32466 32470 28
25977 32471 32472 28
25978 32471 32473 28
25979 32471 32474 28
25980 32471 32475 28
25981 32476 32477 28
25982 32476 32478 28
25983 32476 32479 28
25984 32476 32480 28
25985 32481 32482 28
25986 32481 32483 28
25987 32481 32484 28
25988 32481 32485 28
25989 32486 32487 28
25990 32486 32488 28
25991 32486 32489 28
25992 32486 32490 28
25993 32491 32492 28
25994 32491 32493 28
25995 32491 32494 28
25996 32491 32495 28
25997 32496 32497 28
25998 32496 32498 28
25999 32496 32499 28
26000 32496 32500 28
26001 32501 32502 28
26002 32501 32503 28
26003 32501 32504 28
26004 32501 32505 28
26005 32506 32507 28
26006 32506 32508 28
26007 32506 32509 28
26008 32506 32510 28
26009 32511 32512 28
26010 32511 32513 28
26011 32511 32514 28
26012 32511 32515 28
26013 32516 32517 28
26014 32516 32518 28
26015 32516 32519 28
26016 32516 32520 28
26017 32521 32522 28
26018 32521 32523 28
26019 32521 32524 28
26020 32521 32525 28
26021 32526 32527 28
26022 32526 32528 28
26023 32526 32529 28
26024 32526 32530 28
26025 32531 32532 28
26026 32531 32533 28
26027 32531 32534 28
26028 32531 32535 28
26029 32536 32537 28
26030 32536 32538 28
26031 32536 32539 28
26032 32536 32540 28
26033 32541 32542 28
26034 32541 32543 28
26035 32541 32544 28
26036 32541 32545 28
26037 32546 32547 28
26038 32546 32548 28
26039 32546 32549 28
26040 32546 32550 28
26041 32551 32552 28
26042 32551 32553 28
26043 32551 32554 28
26044 32551 32555 28
26045 32556 32557 28
26046 32556 32558 28
26047 32556 32559 28
26048 32556 32560 28
26049 32561 32562 28
26050 32561 32563 28
26051 32561 32564 28
26052 32561 32565 28
26053 32566 32567 28
26054 32566 32568 28
26055 32566 32569 28
26056 32566 32570 28
26057 32571 32572 28
26058 32571 32573 28
26059 32571 32574 28
26060 32571 32575 28
26061 32576 32577 28
26062 32576 32578 28
26063 32576 32579 28
26064 32576 32580 28
26065 32581 32582 28
26066 32581 32583 28
26067 32581 32584 28
26068 32581 32585 28
26069 32586 32587 28
26070 32586 32588 28
26071 32586 32589 28
26072 32586 32590 28
26073 32591 32592 28
26074 32591 32593 28
26075 32591 32594 28
26076 32591 32595 28
26077 32596 32597 28
26078 32596 32598 28
26079 32596 32599 28
26080 32596 32600 28
26081 32601 32602 28
26082 32601 32603 28
26083 32601 32604 28
26084 32601 32605 28
26085 32606 32607 28
26086 32606 32608 28
26087 32606 32609 28
26088 32606 32610 28
26089 32611 32612 28
26090 32611 32613 28
26091 32611 32614 28
26092 32611 32615 28
26093 32616 32617 28
26094 32616 32618 28
26095 32616 32619 28
26096 32616 32620 28
26097 32621 32622 28
26098 32621 32623 28
26099 32621 32624 28
26100 32621 32625 28
26101 32626 32627 28
26102 32626 32628 28
26103 32626 32629 28
26104 32626 32630 28
26105 32631 32632 28
26106 32631 32633 28
26107 32631 32634 28
26108 32631 32635 28
26109 32636 32637 28
26110 32636 32638 28
26111 32636 32639 28
26112 32636 32640 28
26113 32641 32642 28
26114 32641 32643 28
26115 32641 32644 28
26116 32641 32645 28
26117 32646 32647 28
26118 32646 32648 28
26119 32646 32649 28
26120 32646 32650 28
26121 32651 32652 28
26122 32651 32653 28
26123 32651 32654 28
26124 32651 32655 28
26125 32656 32657 28
26126 32656 32658 28
26127 32656 32659 28
26128 32656 32660 28
26129 32661 32662 28
26130 32661 32663 28
26131 32661 32664 28
26132 32661 32665 28
26133 32666 32667 28
26134 32666 32668 28
26135 32666 32669 28
26136 32666 32670 28
26137 32671 32672 28
26138 32671 32673 28
26139 32671 32674 28
26140 32671 32675 28
26141 32676 32677 28
26142 32676 32678 28
26143 32676 32679 28
26144 32676 32680 28
26145 32681 32682 28
26146 32681 32683 28
26147 32681 32684 28
26148 32681 32685 28
26149 32686 32687 28
26150 32686 32688 28
26151 32686 32689 28
26152 32686 32690 28
26153 32691 32692 28
26154 32691 32693 28
26155 32691 32694 28
26156 32691 32695 28
26157 32696 32697 28
26158 32696 32698 28
26159 32696 32699 28
26160 32696 32700 28
26161 32701 32702 28
26162 32701 32703 28
26163 32701 32704 28
26164 32701 32705 28
26165 32706 32707 28
26166 32706 32708 28
26167 32706 32709 28
26168 32706 32710 28
26169 32711 32712 28
26170 32711 32713 28
26171 32711 32714 28
26172 32711 32715 28
26173 32716 32717 28
26174 32716 32718 28
26175 32716 32719 28
26176 32716 32720 28
26177 32721 32722 28
26178 32721 32723 28
26179 32721 32724 28
26180 32721 32725 28
26181 32726 32727 28
26182 32726 32728 28
26183 32726 32729 28
26184 32726 32730 28
26185 32731 32732 28
26186 32731 32733 28
26187 32731 32734 28
26188 32731 32735 28
26189 32736 32737 28
26190 32736 32738 28
26191 32736 32739 28
26192 32736 32740 28
26193 32741 32742 28
26194 32741 32743 28
26195 32741 32744 28
26196 32741 32745 28
26197 32746 32747 28
26198 32746 32748 28
26199 32746 32749 28
26200 32746 32750 28
26201 32751 32752 28
26202 32751 32753 28
26203 32751 32754 28
26204 32751 32755 28
26205 32756 32757 28
26206 32756 32758 28
26207 32756 32759 28
26208 32756 32760 28
26209 32761 32762 28
26210 32761 32763 28
26211 32761 32764 28
26212 32761 32765 28
26213 32766 32767 28
26214 32766 32768 28
26215 32766 32769 28
26216 32766 32770 28
26217 32771 32772 28
26218 32771 32773 28
26219 32771 32774 28
26220 32771 32775 28
26221 32776 32777 28
26222 32776 32778 28
26223 32776 32779 28
26224 32776 32780 28
26225 32781 32782 28
26226 32781 32783 28
26227 32781 32784 28
26228 32781 32785 28
26229 32786 32787 28
26230 32786 32788 28
26231 32786 32789 28
26232 32786 32790 28
26233 32791 32792 28
26234 32791 32793 28
26235 32791 32794 28
26236 32791 32795 28
26237 32796 32797 28
26238 32796 32798 28
26239 32796 32799 28
26240 32796 32800 28
26241 32801 32802 28
26242 32801 32803 28
26243 32801 32804 28
26244 32801 32805 28
26245 32806 32807 28
26246 32806 32808 28
26247 32806 32809 28
26248 32806 32810 28
26249 32811 32812 28
26250 32811 32813 28
26251 32811 32814 28
26252 32811 32815 28
26253 32816 32817 28
26254 32816 32818 28
26255 32816 32819 28
26256 32816 32820 28
26257 32821 32822 28
26258 32821 32823 28
26259 32821 32824 28
26260 32821 32825 28
26261 32826 32827 28
26262 32826 32828 28
26263 32826 32829 28
26264 32826 32830 28
26265 32831 32832 28
26266 32831 32833 28
26267 32831 32834 28
26268 32831 32835 28
26269 32836 32837 28
26270 32836 32838 28
26271 32836 32839 28
26272 32836 32840 28
26273 32841 32842 28
26274 32841 32843 28
26275 32841 32844 28
26276 32841 32845 28
26277 32846 32847 28
26278 32846 32848 28
26279 32846 32849 28
26280 32846 32850 28
26281 32851 32852 28
26282 32851 32853 28
26283 32851 32854 28
26284 32851 32855 28
26285 32856 32857 28
26286 32856 32858 28
26287 32856 32859 28
26288 32856 32860 28
26289 32861 32862 28
26290 32861 32863 28
26291 32861 32864 28
26292 32861 32865 28
26293 32866 32867 28
26294 32866 32868 28
26295 32866 32869 28
26296 32866 32870 28
26297 32871 32872 28
26298 32871 32873 28
26299 32871 32874 28
26300 32871 32875 28
26301 32876 32877 28
26302 32876 32878 28
26303 32876 32879 28
26304 32876 32880 28
26305 32881 32882 28
26306 32881 32883 28
26307 32881 32884 28
26308 32881 32885 28
26309 32886 32887 28
26310 32886 32888 28
26311 32886 32889 28
26312 32886 32890 28
26313 32891 32892 28
26314 32891 32893 28
26315 32891 32894 28
26316 32891 32895 28
26317 32896 32897 28
26318 32896 32898 28
26319 32896 32899 28
26320 32896 32900 28
26321 32901 32902 28
26322 32901 32903 28
26323 32901 32904 28
26324 32901 32905 28
26325 32906 32907 28
26326 32906 32908 28
26327 32906 32909 28
26328 32906 32910 28
26329 32911 32912 28
26330 32911 32913 28
26331 32911 32914 28
26332 32911 32915 28
26333 32916 32917 28
26334 32916 32918 28
26335 32916 32919 28
26336 32916 32920 28
26337 32921 32922 28
26338 32921 32923 28
26339 32921 32924 28
26340 32921 32925 28
26341 32926 32927 28
26342 32926 32928 28
26343 32926 32929 28
26344 32926 32930 28
26345 32931 32932 28
26346 32931 32933 28
26347 32931 32934 28
26348 32931 32935 28
26349 32936 32937 28
26350 32936 32938 28
26351 32936 32939 28
26352 32936 32940 28
26353 32941 32942 28
26354 32941 32943 28
26355 32941 32944 28
26356 32941 32945 28
26357 32946 32947 28
26358 32946 32948 28
26359 32946 32949 28
26360 32946 32950 28
26361 32951 32952 28
26362 32951 32953 28
26363 32951 32954 28
26364 32951 32955 28
26365 32956 32957 28
26366 32956 32958 28
26367 32956 32959 28
26368 32956 32960 28
26369 32961 32962 28
26370 32961 32963 28
26371 32961 32964 28
26372 32961 32965 28
26373 32966 32967 28
26374 32966 32968 28
26375 32966 32969 28
26376 32966 32970 28
26377 32971 32972 28
26378 32971 32973 28
26379 32971 32974 28
26380 32971 32975 28
26381 32976 32977 28
26382 32976 32978 28
26383 32976 32979 28
26384 32976 32980 28
26385 32981 32982 28
26386 32981 32983 28
26387 32981 32984 28
26388 32981 32985 28
26389 32986 32987 28
26390 32986 32988 28
26391 32986 32989 28
26392 32986 32990 28
26393 32991 32992 28
26394 32991 32993 28
26395 32991 32994 28
26396 32991 32995 28
26397 32996 32997 28
26398 32996 32998 28
26399 32996 32999 28
26400 32996 33000 28
26401 33001 33002 28
26402 33001 33003 28
26403 33001 33004 28
26404 33001 33005 28
26405 33006 33007 28
26406 33006 33008 28
26407 33006 33009 28
26408 33006 33010 28
26409 33011 33012 28
26410 33011 33013 28
26411 33011 33014 28
26412 33011 33015 28
26413 33016 33017 28
26414 33016 33018 28
26415 33016 33019 28
26416 33016 33020 28
26417 33021 33022 28
26418 33021 33023 28
26419 33021 33024 28
26420 33021 33025 28
26421 33026 33027 28
26422 33026 33028 28
26423 33026 33029 28
26424 33026 33030 28
26425 33031 33032 28
26426 33031 33033 28
26427 33031 33034 28
26428 33031 33035 28
26429 33036 33037 28
26430 33036 33038 28
26431 33036 33039 28
26432 33036 33040 28
26433 33041 33042 28
26434 33041 33043 28
26435 33041 33044 28
26436 33041 33045 28
26437 33046 33047 28
26438 33046 33048 28
26439 33046 33049 28
26440 33046 33050 28
26441 33051 33052 28
26442 33051 33053 28
26443 33051 33054 28
26444 33051 33055 28
26445 33056 33057 28
26446 33056 33058 28
26447 33056 33059 28
26448 33056 33060 28
26449 33061 33062 28
26450 33061 33063 28
26451 33061 33064 28
26452 33061 33065 28
26453 33066 33067 28
26454 33066 33068 28
26455 33066 33069 28
26456 33066 33070 28
26457 33071 33072 28
26458 33071 33073 28
26459 33071 33074 28
26460 33071 33075 28
26461 33076 33077 28
26462 33076 33078 28
26463 33076 33079 28
26464 33076 33080 28
26465 33081 33082 28
26466 33081 33083 28
26467 33081 33084 28
26468 33081 33085 28
26469 33086 33087 28
26470 33086 33088 28
26471 33086 33089 28
26472 33086 33090 28
26473 33091 33092 28
26474 33091 33093 28
26475 33091 33094 28
26476 33091 33095 28
26477 33096 33097 28
26478 33096 33098 28
26479 33096 33099 28
26480 33096 33100 28
26481 33101 33102 28
26482 33101 33103 28
26483 33101 33104 28
26484 33101 33105 28
26485 33106 33107 28
26486 33106 33108 28
26487 33106 33109 28
26488 33106 33110 28
26489 33111 33112 28
26490 33111 33113 28
26491 33111 33114 28
26492 33111 33115 28
26493 33116 33117 28
26494 33116 33118 28
26495 33116 33119 28
26496 33116 33120 28
26497 33121 33122 28
26498 33121 33123 28
26499 33121 33124 28
26500 33121 33125 28
26501 33126 33127 28
26502 33126 33128 28
26503 33126 33129 28
26504 33126 33130 28
26505 33131 33132 28
26506 33131 33133 28
26507 33131 33134 28
26508 33131 33135 28
26509 33136 33137 28
26510 33136 33138 28
26511 33136 33139 28
26512 33136 33140 28
26513 33141 33142 28
26514 33141 33143 28
26515 33141 33144 28
26516 33141 33145 28
26517 33146 33147 28
26518 33146 33148 28
26519 33146 33149 28
26520 33146 33150 28
26521 33151 33152 28
26522 33151 33153 28
26523 33151 33154 28
26524 33151 33155 28
26525 33156 33157 28
26526 33156 33158 28
26527 33156 33159 28
26528 33156 33160 28
26529 33161 33162 28
26530 33161 33163 28
26531 33161 33164 28
26532 33161 33165 28
26533 33166 33167 28
26534 33166 33168 28
26535 33166 33169 28
26536 33166 33170 28
26537 33171 33172 28
26538 33171 33173 28
26539 33171 33174 28
26540 33171 33175 28
26541 33176 33177 28
26542 33176 33178 28
26543 33176 33179 28
26544 33176 33180 28
26545 33181 33182 28
26546 33181 33183 28
26547 33181 33184 28
26548 33181 33185 28
26549 33186 33187 28
26550 33186 33188 28
26551 33186 33189 28
26552 33186 33190 28
26553 33191 33192 28
26554 33191 33193 28
26555 33191 33194 28
26556 33191 33195 28
26557 33196 33197 28
26558 33196 33198 28
26559 33196 33199 28
26560 33196 33200 28
26561 33201 33202 28
26562 33201 33203 28
26563 33201 33204 28
26564 33201 33205 28
26565 33206 33207 28
26566 33206 33208 28
26567 33206 33209 28
26568 33206 33210 28
26569 33211 33212 28
26570 33211 33213 28
26571 33211 33214 28
26572 33211 33215 28
26573 33216 33217 28
26574 33216 33218 28
26575 33216 33219 28
26576 33216 33220 28
26577 33221 33222 28
26578 33221 33223 28
26579 33221 33224 28
26580 33221 33225 28
26581 33226 33227 28
26582 33226 33228 28
26583 33226 33229 28
26584 33226 33230 28
26585 33231 33232 28
26586 33231 33233 28
26587 33231 33234 28
26588 33231 33235 28
26589 33236 33237 28
26590 33236 33238 28
26591 33236 33239 28
26592 33236 33240 28
26593 33241 33242 28
26594 33241 33243 28
26595 33241 33244 28
26596 33241 33245 28
26597 33246 33247 28
26598 33246 33248 28
26599 33246 33249 28
26600 33246 33250 28
26601 33251 33252 28
26602 33251 33253 28
26603 33251 33254 28
26604 33251 33255 28
26605 33256 33257 28
26606 33256 33258 28
26607 33256 33259 28
26608 33256 33260 28
26609 33261 33262 28
26610 33261 33263 28
26611 33261 33264 28
26612 33261 33265 28
26613 33266 33267 28
26614 33266 33268 28
26615 33266 33269 28
26616 33266 33270 28
26617 33271 33272 28
26618 33271 33273 28
26619 33271 33274 28
26620 33271 33275 28
26621 33276 33277 28
26622 33276 33278 28
26623 33276 33279 28
26624 33276 33280 28
26625 33281 33282 28
26626 33281 33283 28
26627 33281 33284 28
26628 33281 33285 28
26629 33286 33287 28
26630 33286 33288 28
26631 33286 33289 28
26632 33286 33290 28
26633 33291 33292 28
26634 33291 33293 28
26635 33291 33294 28
26636 33291 33295 28
26637 33296 33297 28
26638 33296 33298 28
26639 33296 33299 28
26640 33296 33300 28
26641 33301 33302 28
26642 33301 33303 28
26643 33301 33304 28
26644 33301 33305 28
26645 33306 33307 28
26646 33306 33308 28
26647 33306 33309 28
26648 33306 33310 28
26649 33311 33312 28
26650 33311 33313 28
26651 33311 33314 28
26652 33311 33315 28
26653 33316 33317 28
26654 33316 33318 28
26655 33316 33319 28
26656 33316 33320 28
26657 33321 33322 28
26658 33321 33323 28
26659 33321 33324 28
26660 33321 33325 28
26661 33326 33327 28
26662 33326 33328 28
26663 33326 33329 28
26664 33326 33330 28
26665 33331 33332 28
26666 33331 33333 28
26667 33331 33334 28
26668 33331 33335 28
26669 33336 33337 28
26670 33336 33338 28
26671 33336 33339 28
26672 33336 33340 28
26673 33341 33342 28
26674 33341 33343 28
26675 33341 33344 28
26676 33341 33345 28
26677 33346 33347 28
26678 33346 33348 28
26679 33346 33349 28
26680 33346 33350 28
26681 33351 33352 28
26682 33351 33353 28
26683 33351 33354 28
26684 33351 33355 28
26685 33356 33357 28
26686 33356 33358 28
26687 33356 33359 28
26688 33356 33360 28
26689 33361 33362 28
26690 33361 33363 28
26691 33361 33364 28
26692 33361 33365 28
26693 33366 33367 28
26694 33366 33368 28
26695 33366 33369 28
26696 33366 33370 28
26697 33371 33372 28
26698 33371 33373 28
26699 33371 33374 28
26700 33371 33375 28
26701 33376 33377 28
26702 33376 33378 28
26703 33376 33379 28
26704 33376 33380 28
26705 33381 33382 28
26706 33381 33383 28
26707 33381 33384 28
26708 33381 33385 28
26709 33386 33387 28
26710 33386 33388 28
26711 33386 33389 28
26712 33386 33390 28
26713 33391 33392 28
26714 33391 33393 28
26715 33391 33394 28
26716 33391 33395 28
26717 33396 33397 28
26718 33396 33398 28
26719 33396 33399 28
26720 33396 33400 28
26721 33401 33402 28
26722 33401 33403 28
26723 33401 33404 28
26724 33401 33405 28
26725 33406 33407 28
26726 33406 33408 28
26727 33406 33409 28
26728 33406 33410 28
26729 33411 33412 28
26730 33411 33413 28
26731 33411 33414 28
26732 33411 33415 28
26733 33416 33417 28
26734 33416 33418 28
26735 33416 33419 28
26736 33416 33420 28
26737 33421 33422 28
26738 33421 33423 28
26739 33421 33424 28
26740 33421 33425 28
26741 33426 33427 28
26742 33426 33428 28
26743 33426 33429 28
26744 33426 33430 28
26745 33431 33432 28
26746 33431 33433 28
26747 33431 33434 28
26748 33431 33435 28
26749 33436 33437 28
26750 33436 33438 28
26751 33436 33439 28
26752 33436 33440 28
26753 33441 33442 28
26754 33441 33443 28
26755 33441 33444 28
26756 33441 33445 28
26757 33446 33447 28
26758 33446 33448 28
26759 33446 33449 28
26760 33446 33450 28
26761 33451 33452 28
26762 33451 33453 28
26763 33451 33454 28
26764 33451 33455 28
26765 33456 33457 28
26766 33456 33458 28
26767 33456 33459 28
26768 33456 33460 28
26769 33461 33462 28
26770 33461 33463 28
26771 33461 33464 28
26772 33461 33465 28
26773 33466 33467 28
26774 33466 33468 28
26775 33466 33469 28
26776 33466 33470 28
26777 33471 33472 28
26778 33471 33473 28
26779 33471 33474 28
26780 33471 33475 28
26781 33476 33477 28
26782 33476 33478 28
26783 33476 33479 28
26784 33476 33480 28
26785 33481 33482 28
26786 33481 33483 28
26787 33481 33484 28
26788 33481 33485 28
26789 33486 33487 28
26790 33486 33488 28
26791 33486 33489 28
26792 33486 33490 28
26793 33491 33492 28
26794 33491 33493 28
26795 33491 33494 28
26796 33491 33495 28
26797 33496 33497 28
26798 33496 33498 28
26799 33496 33499 28
26800 33496 33500 28
26801 33501 33502 28
26802 33501 33503 28
26803 33501 33504 28
26804 33501 33505 28
26805 33506 33507 28
26806 33506 33508 28
26807 33506 33509 28
26808 33506 33510 28
26809 33511 33512 28
26810 33511 33513 28
26811 33511 33514 28
26812 33511 33515 28
26813 33516 33517 28
26814 33516 33518 28
26815 33516 33519 28
26816 33516 33520 28
26817 33521 33522 28
26818 33521 33523 28
26819 33521 33524 28
26820 33521 33525 28
26821 33526 33527 28
26822 33526 33528 28
26823 33526 33529 28
26824 33526 33530 28
26825 33531 33532 28
26826 33531 33533 28
26827 33531 33534 28
26828 33531 33535 28
26829 33536 33537 28
26830 33536 33538 28
26831 33536 33539 28
26832 33536 33540 28
26833 33541 33542 28
26834 33541 33543 28
26835 33541 33544 28
26836 33541 33545 28
26837 33546 33547 28
26838 33546 33548 28
26839 33546 33549 28
26840 33546 33550 28
26841 33551 33552 28
26842 33551 33553 28
26843 33551 33554 28
26844 33551 33555 28
26845 33556 33557 28
26846 33556 33558 28
26847 33556 33559 28
26848 33556 33560 28
26849 33561 33562 28
26850 33561 33563 28
26851 33561 33564 28
26852 33561 33565 28
26853 33566 33567 28
26854 33566 33568 28
26855 33566 33569 28
26856 33566 33570 28
26857 33571 33572 28
26858 33571 33573 28
26859 33571 33574 28
26860 33571 33575 28
26861 33576 33577 28
26862 33576 33578 28
26863 33576 33579 28
26864 33576 33580 28
26865 33581 33582 28
26866 33581 33583 28
26867 33581 33584 28
26868 33581 33585 28
26869 33586 33587 28
26870 33586 33588 28
26871 33586 33589 28
26872 33586 33590 28
26873 33591 33592 28
26874 33591 33593 28
26875 33591 33594 28
26876 33591 33595 28
26877 33596 33597 28
26878 33596 33598 28
26879 33596 33599 28
26880 33596 33600 28
26881 33601 33602 28
26882 33601 33603 28
26883 33601 33604 28
26884 33601 33605 28
26885 33606 33607 28
26886 33606 33608 28
26887 33606 33609 28
26888 33606 33610 28
26889 33611 33612 28
26890 33611 33613 28
26891 33611 33614 28
26892 33611 33615 28
26893 33616 33617 28
26894 33616 33618 28
26895 33616 33619 28
26896 33616 33620 28
26897 33621 33622 28
26898 33621 33623 28
26899 33621 33624 28
26900 33621 33625 28
26901 33626 33627 28
26902 33626 33628 28
26903 33626 33629 28
26904 33626 33630 28
26905 33631 33632 28
26906 33631 33633 28
26907 33631 33634 28
26908 33631 33635 28
26909 33636 33637 28
26910 33636 33638 28
26911 33636 33639 28
26912 33636 33640 28
26913 33641 33642 28
26914 33641 33643 28
26915 33641 33644 28
26916 33641 33645 28
26917 33646 33647 28
26918 33646 33648 28
26919 33646 33649 28
26920 33646 33650 28
26921 33651 33652 28
26922 33651 33653 28
26923 33651 33654 28
26924 33651 33655 28
26925 33656 33657 28
26926 33656 33658 28
26927 33656 33659 28
26928 33656 33660 28
26929 33661 33662 28
26930 33661 33663 28
26931 33661 33664 28
26932 33661 33665 28
26933 33666 33667 28
26934 33666 33668 28
26935 33666 33669 28
26936 33666 33670 28
26937 33671 33672 28
26938 33671 33673 28
26939 33671 33674 28
26940 33671 33675 28
26941 33676 33677 28
26942 33676 33678 28
26943 33676 33679 28
26944 33676 33680 28
26945 33681 33682 28
26946 33681 33683 28
26947 33681 33684 28
26948 33681 33685 28
26949 33686 33687 28
26950 33686 33688 28
26951 33686 33689 28
26952 33686 33690 28
26953 33691 33692 28
26954 33691 33693 28
26955 33691 33694 28
26956 33691 33695 28
26957 33696 33697 28
26958 33696 33698 28
26959 33696 33699 28
26960 33696 33700 28
26961 33701 33702 28
26962 33701 33703 28
26963 33701 33704 28
26964 33701 33705 28
26965 33706 33707 28
26966 33706 33708 28
26967 33706 33709 28
26968 33706 33710 28
26969 33711 33712 28
26970 33711 33713 28
26971 33711 33714 28
26972 33711 33715 28
26973 33716 33717 28
26974 33716 33718 28
26975 33716 33719 28
26976 33716 33720 28
26977 33721 33722 28
26978 33721 33723 28
26979 33721 33724 28
26980 33721 33725 28
26981 33726 33727 28
26982 33726 33728 28
26983 33726 33729 28
26984 33726 33730 28
26985 33731 33732 28
26986 33731 33733 28
26987 33731 33734 28
26988 33731 33735 28
26989 33736 33737 28
26990 33736 33738 28
26991 33736 33739 28
26992 33736 33740 28
26993 33741 33742 28
26994 33741 33743 28
26995 33741 33744 28
26996 33741 33745 28
26997 33746 33747 28
26998 33746 33748 28
26999 33746 33749 28
27000 33746 33750 28
27001 33751 33752 28
27002 33751 33753 28
27003 33751 33754 28
27004 33751 33755 28
27005 33756 33757 28
27006 33756 33758 28
27007 33756 33759 28
27008 33756 33760 28
27009 33761 33762 28
27010 33761 33763 28
27011 33761 33764 28
27012 33761 33765 28
27013 33766 33767 28
27014 33766 33768 28
27015 33766 33769 28
27016 33766 33770 28
27017 33771 33772 28
27018 33771 33773 28
27019 33771 33774 28
27020 33771 33775 28
27021 33776 33777 28
27022 33776 33778 28
27023 33776 33779 28
27024 33776 33780 28
27025 33781 33782 28
27026 33781 33783 28
27027 33781 33784 28
27028 33781 33785 28
27029 33786 33787 28
27030 33786 33788 28
27031 33786 33789 28
27032 33786 33790 28
27033 33791 33792 28
27034 33791 33793 28
27035 33791 33794 28
27036 33791 33795 28
27037 33796 33797 28
27038 33796 33798 28
27039 33796 33799 28
27040 33796 33800 28
27041 33801 33802 28
27042 33801 33803 28
27043 33801 33804 28
27044 33801 33805 28
27045 33806 33807 28
27046 33806 33808 28
27047 33806 33809 28
27048 33806 33810 28
27049 33811 33812 28
27050 33811 33813 28
27051 33811 33814 28
27052 33811 33815 28
27053 33816 33817 28
27054 33816 33818 28
27055 33816 33819 28
27056 33816 33820 28
27057 33821 33822 28
27058 33821 33823 28
27059 33821 33824 28
27060 33821 33825 28
27061 33826 33827 28
27062 33826 33828 28
27063 33826 33829 28
27064 33826 33830 28
27065 33831 33832 28
27066 33831 33833 28
27067 33831 33834 28
27068 33831 33835 28
27069 33836 33837 28
27070 33836 33838 28
27071 33836 33839 28
27072 33836 33840 28
27073 33841 33842 28
27074 33841 33843 28
27075 33841 33844 28
27076 33841 33845 28
27077 33846 33847 28
27078 33846 33848 28
27079 33846 33849 28
27080 33846 33850 28
27081 33851 33852 28
27082 33851 33853 28
27083 33851 33854 28
27084 33851 33855 28
27085 33856 33857 28
27086 33856 33858 28
27087 33856 33859 28
27088 33856 33860 28
27089 33861 33862 28
27090 33861 33863 28
27091 33861 33864 28
27092 33861 33865 28
27093 33866 33867 28
27094 33866 33868 28
27095 33866 33869 28
27096 33866 33870 28
27097 33871 33872 28
27098 33871 33873 28
27099 33871 33874 28
27100 33871 33875 28
27101 33876 33877 28
27102 33876 33878 28
27103 33876 33879 28
27104 33876 33880 28
27105 33881 33882 28
27106 33881 33883 28
27107 33881 33884 28
27108 33881 33885 28
27109 33886 33887 28
27110 33886 33888 28
27111 33886 33889 28
27112 33886 33890 28
27113 33891 33892 28
27114 33891 33893 28
27115 33891 33894 28
27116 33891 33895 28
27117 33896 33897 28
27118 33896 33898 28
27119 33896 33899 28
27120 33896 33900 28
27121 33901 33902 28
27122 33901 33903 28
27123 33901 33904 28
27124 33901 33905 28
27125 33906 33907 28
27126 33906 33908 28
27127 33906 33909 28
27128 33906 33910 28
27129 33911 33912 28
27130 33911 33913 28
27131 33911 33914 28
27132 33911 33915 28
27133 33916 33917 28
27134 33916 33918 28
27135 33916 33919 28
27136 33916 33920 28
27137 33921 33922 28
27138 33921 33923 28
27139 33921 33924 28
27140 33921 33925 28
27141 33926 33927 28
27142 33926 33928 28
27143 33926 33929 28
27144 33926 33930 28
27145 33931 33932 28
27146 33931 33933 28
27147 33931 33934 28
27148 33931 33935 28
27149 33936 33937 28
27150 33936 33938 28
27151 33936 33939 28
27152 33936 33940 28
27153 33941 33942 28
27154 33941 33943 28
27155 33941 33944 28
27156 33941 33945 28
27157 33946 33947 28
27158 33946 33948 28
27159 33946 33949 28
27160 33946 33950 28
27161 33951 33952 28
27162 33951 33953 28
27163 33951 33954 28
27164 33951 33955 28
27165 33956 33957 28
27166 33956 33958 28
27167 33956 33959 28
27168 33956 33960 28
27169 33961 33962 28
27170 33961 33963 28
27171 33961 33964 28
27172 33961 33965 28
27173 33966 33967 28
27174 33966 33968 28
27175 33966 33969 28
27176 33966 33970 28
27177 33971 33972 28
27178 33971 33973 28
27179 33971 33974 28
27180 33971 33975 28
27181 33976 33977 28
27182 33976 33978 28
27183 33976 33979 28
27184 33976 33980 28
27185 33981 33982 28
27186 33981 33983 28
27187 33981 33984 28
27188 33981 33985 28
27189 33986 33987 28
27190 33986 33988 28
27191 33986 33989 28
27192 33986 33990 28
27193 33991 33992 28
27194 33991 33993 28
27195 33991 33994 28
27196 33991 33995 28
27197 33996 33997 28
27198 33996 33998 28
27199 33996 33999 28
27200 33996 34000 28
27201 34001 34002 28
27202 34001 34003 28
27203 34001 34004 28
27204 34001 34005 28
27205 34006 34007 28
27206 34006 34008 28
27207 34006 34009 28
27208 34006 34010 28
27209 34011 34012 28
27210 34011 34013 28
27211 34011 34014 28
27212 34011 34015 28
27213 34016 34017 28
27214 34016 34018 28
27215 34016 34019 28
27216 34016 34020 28
27217 34021 34022 28
27218 34021 34023 28
27219 34021 34024 28
27220 34021 34025 28
27221 34026 34027 28
27222 34026 34028 28
27223 34026 34029 28
27224 34026 34030 28
27225 34031 34032 28
27226 34031 34033 28
27227 34031 34034 28
27228 34031 34035 28
27229 34036 34037 28
27230 34036 34038 28
27231 34036 34039 28
27232 34036 34040 28
27233 34041 34042 28
27234 34041 34043 28
27235 34041 34044 28
27236 34041 34045 28
27237 34046 34047 28
27238 34046 34048 28
27239 34046 34049 28
27240 34046 34050 28
27241 34051 34052 28
27242 34051 34053 28
27243 34051 34054 28
27244 34051 34055 28
27245 34056 34057 28
27246 34056 34058 28
27247 34056 34059 28
27248 34056 34060 28
27249 34061 34062 28
27250 34061 34063 28
27251 34061 34064 28
27252 34061 34065 28
27253 34066 34067 28
27254 34066 34068 28
27255 34066 34069 28
27256 34066 34070 28
27257 34071 34072 28
27258 34071 34073 28
27259 34071 34074 28
27260 34071 34075 28
27261 34076 34077 28
27262 34076 34078 28
27263 34076 34079 28
27264 34076 34080 28
27265 34081 34082 28
27266 34081 34083 28
27267 34081 34084 28
27268 34081 34085 28
27269 34086 34087 28
27270 34086 34088 28
27271 34086 34089 28
27272 34086 34090 28
27273 34091 34092 28
27274 34091 34093 28
27275 34091 34094 28
27276 34091 34095 28
27277 34096 34097 28
27278 34096 34098 28
27279 34096 34099 28
27280 34096 34100 28
27281 34101 34102 28
27282 34101 34103 28
27283 34101 34104 28
27284 34101 34105 28
27285 34106 34107 28
27286 34106 34108 28
27287 34106 34109 28
27288 34106 34110 28
27289 34111 34112 28
27290 34111 34113 28
27291 34111 34114 28
27292 34111 34115 28
27293 34116 34117 28
27294 34116 34118 28
27295 34116 34119 28
27296 34116 34120 28
27297 34121 34122 28
27298 34121 34123 28
27299 34121 34124 28
27300 34121 34125 28
27301 34126 34127 28
27302 34126 34128 28
27303 34126 34129 28
27304 34126 34130 28
27305 34131 34132 28
27306 34131 34133 28
27307 34131 34134 28
27308 34131 34135 28
27309 34136 34137 28
27310 34136 34138 28
27311 34136 34139 28
27312 34136 34140 28
27313 34141 34142 28
27314 34141 34143 28
27315 34141 34144 28
27316 34141 34145 28
27317 34146 34147 28
27318 34146 34148 28
27319 34146 34149 28
27320 34146 34150 28
27321 34151 34152 28
27322 34151 34153 28
27323 34151 34154 28
27324 34151 34155 28
27325 34156 34157 28
27326 34156 34158 28
27327 34156 34159 28
27328 34156 34160 28
27329 34161 34162 28
27330 34161 34163 28
27331 34161 34164 28
27332 34161 34165 28
27333 34166 34167 28
27334 34166 34168 28
27335 34166 34169 28
27336 34166 34170 28
27337 34171 34172 28
27338 34171 34173 28
27339 34171 34174 28
27340 34171 34175 28
27341 34176 34177 28
27342 34176 34178 28
27343 34176 34179 28
27344 34176 34180 28
27345 34181 34182 28
27346 34181 34183 28
27347 34181 34184 28
27348 34181 34185 28
27349 34186 34187 28
27350 34186 34188 28
27351 34186 34189 28
27352 34186 34190 28
27353 34191 34192 28
27354 34191 34193 28
27355 34191 34194 28
27356 34191 34195 28
27357 34196 34197 28
27358 34196 34198 28
27359 34196 34199 28
27360 34196 34200 28
27361 34201 34202 28
27362 34201 34203 28
27363 34201 34204 28
27364 34201 34205 28
27365 34206 34207 28
27366 34206 34208 28
27367 34206 34209 28
27368 34206 34210 28
27369 34211 34212 28
27370 34211 34213 28
27371 34211 34214 28
27372 34211 34215 28
27373 34216 34217 28
27374 34216 34218 28
27375 34216 34219 28
27376 34216 34220 28
27377 34221 34222 28
27378 34221 34223 28
27379 34221 34224 28
27380 34221 34225 28
27381 34226 34227 28
27382 34226 34228 28
27383 34226 34229 28
27384 34226 34230 28
27385 34231 34232 28
27386 34231 34233 28
27387 34231 34234 28
27388 34231 34235 28
27389 34236 34237 28
27390 34236 34238 28
27391 34236 34239 28
27392 34236 34240 28
27393 34241 34242 28
27394 34241 34243 28
27395 34241 34244 28
27396 34241 34245 28
27397 34246 34247 28
27398 34246 34248 28
27399 34246 34249 28
27400 34246 34250 28
27401 34251 34252 28
27402 34251 34253 28
27403 34251 34254 28
27404 34251 34255 28
27405 34256 34257 28
27406 34256 34258 28
27407 34256 34259 28
27408 34256 34260 28
27409 34261 34262 28
27410 34261 34263 28
27411 34261 34264 28
27412 34261 34265 28
27413 34266 34267 28
27414 34266 34268 28
27415 34266 34269 28
27416 34266 34270 28
27417 34271 34272 28
27418 34271 34273 28
27419 34271 34274 28
27420 34271 34275 28
27421 34276 34277 28
27422 34276 34278 28
27423 34276 34279 28
27424 34276 34280 28
27425 34281 34282 28
27426 34281 34283 28
27427 34281 34284 28
27428 34281 34285 28
27429 34286 34287 28
27430 34286 34288 28
27431 34286 34289 28
27432 34286 34290 28
27433 34291 34292 28
27434 34291 34293 28
27435 34291 34294 28
27436 34291 34295 28
27437 34296 34297 28
27438 34296 34298 28
27439 34296 34299 28
27440 34296 34300 28
27441 34301 34302 28
27442 34301 34303 28
27443 34301 34304 28
27444 34301 34305 28
27445 34306 34307 28
27446 34306 34308 28
27447 34306 34309 28
27448 34306 34310 28
27449 34311 34312 28
27450 34311 34313 28
27451 34311 34314 28
27452 34311 34315 28
27453 34316 34317 28
27454 34316 34318 28
27455 34316 34319 28
27456 34316 34320 28
27457 34321 34322 28
27458 34321 34323 28
27459 34321 34324 28
27460 34321 34325 28
27461 34326 34327 28
27462 34326 34328 28
27463 34326 34329 28
27464 34326 34330 28
27465 34331 34332 28
27466 34331 34333 28
27467 34331 34334 28
27468 34331 34335 28
27469 34336 34337 28
27470 34336 34338 28
27471 34336 34339 28
27472 34336 34340 28
27473 34341 34342 28
27474 34341 34343 28
27475 34341 34344 28
27476 34341 34345 28
27477 34346 34347 28
27478 34346 34348 28
27479 34346 34349 28
27480 34346 34350 28
27481 34351 34352 28
27482 34351 34353 28
27483 34351 34354 28
27484 34351 34355 28
27485 34356 34357 28
27486 34356 34358 28
27487 34356 34359 28
27488 34356 34360 28
27489 34361 34362 28
27490 34361 34363 28
27491 34361 34364 28
27492 34361 34365 28
27493 34366 34367 28
27494 34366 34368 28
27495 34366 34369 28
27496 34366 34370 28
27497 34371 34372 28
27498 34371 34373 28
27499 34371 34374 28
27500 34371 34375 28
27501 34376 34377 28
27502 34376 34378 28
27503 34376 34379 28
27504 34376 34380 28
27505 34381 34382 28
27506 34381 34383 28
27507 34381 34384 28
27508 34381 34385 28
27509 34386 34387 28
27510 34386 34388 28
27511 34386 34389 28
27512 34386 34390 28
27513 34391 34392 28
27514 34391 34393 28
27515 34391 34394 28
27516 34391 34395 28
27517 34396 34397 28
27518 34396 34398 28
27519 34396 34399 28
27520 34396 34400 28
27521 34401 34402 28
27522 34401 34403 28
27523 34401 34404 28
27524 34401 34405 28
27525 34406 34407 28
27526 34406 34408 28
27527 34406 34409 28
27528 34406 34410 28
27529 34411 34412 28
27530 34411 34413 28
27531 34411 34414 28
27532 34411 34415 28
27533 34416 34417 28
27534 34416 34418 28
27535 34416 34419 28
27536 34416 34420 28
27537 34421 34422 28
27538 34421 34423 28
27539 34421 34424 28
27540 34421 34425 28
27541 34426 34427 28
27542 34426 34428 28
27543 34426 34429 28
27544 34426 34430 28
27545 34431 34432 28
27546 34431 34433 28
27547 34431 34434 28
27548 34431 34435 28
27549 34436 34437 28
27550 34436 34438 28
27551 34436 34439 28
27552 34436 34440 28
27553 34441 34442 28
27554 34441 34443 28
27555 34441 34444 28
27556 34441 34445 28
27557 34446 34447 28
27558 34446 34448 28
27559 34446 34449 28
27560 34446 34450 28
27561 34451 34452 28
27562 34451 34453 28
27563 34451 34454 28
27564 34451 34455 28
27565 34456 34457 28
27566 34456 34458 28
27567 34456 34459 28
27568 34456 34460 28
27569 34461 34462 28
27570 34461 34463 28
27571 34461 34464 28
27572 34461 34465 28
27573 34466 34467 28
27574 34466 34468 28
27575 34466 34469 28
27576 34466 34470 28
27577 34471 34472 28
27578 34471 34473 28
27579 34471 34474 28
27580 34471 34475 28
27581 34476 34477 28
27582 34476 34478 28
27583 34476 34479 28
27584 34476 34480 28
27585 34481 34482 28
27586 34481 34483 28
27587 34481 34484 28
27588 34481 34485 28
27589 34486 34487 28
27590 34486 34488 28
27591 34486 34489 28
27592 34486 34490 28
27593 34491 34492 28
27594 34491 34493 28
27595 34491 34494 28
27596 34491 34495 28
27597 34496 34497 28
27598 34496 34498 28
27599 34496 34499 28
27600 34496 34500 28
27601 34501 34502 28
27602 34501 34503 28
27603 34501 34504 28
27604 34501 34505 28
27605 34506 34507 28
27606 34506 34508 28
27607 34506 34509 28
27608 34506 34510 28
27609 34511 34512 28
27610 34511 34513 28
27611 34511 34514 28
27612 34511 34515 28
27613 34516 34517 28
27614 34516 34518 28
27615 34516 34519 28
27616 34516 34520 28
27617 34521 34522 28
27618 34521 34523 28
27619 34521 34524 28
27620 34521 34525 28
27621 34526 34527 28
27622 34526 34528 28
27623 34526 34529 28
27624 34526 34530 28
27625 34531 34532 28
27626 34531 34533 28
27627 34531 34534 28
27628 34531 34535 28
27629 34536 34537 28
27630 34536 34538 28
27631 34536 34539 28
27632 34536 34540 28
27633 34541 34542 28
27634 34541 34543 28
27635 34541 34544 28
27636 34541 34545 28
27637 34546 34547 28
27638 34546 34548 28
27639 34546 34549 28
27640 34546 34550 28
27641 34551 34552 28
27642 34551 34553 28
27643 34551 34554 28
27644 34551 34555 28
27645 34556 34557 28
27646 34556 34558 28
27647 34556 34559 28
27648 34556 34560 28
27649 34561 34562 28
27650 34561 34563 28
27651 34561 34564 28
27652 34561 34565 28
27653 34566 34567 28
27654 34566 34568 28
27655 34566 34569 28
27656 34566 34570 28
27657 34571 34572 28
27658 34571 34573 28
27659 34571 34574 28
27660 34571 34575 28
27661 34576 34577 28
27662 34576 34578 28
27663 34576 34579 28
27664 34576 34580 28
27665 34581 34582 28
27666 34581 34583 28
27667 34581 34584 28
27668 34581 34585 28
27669 34586 34587 28
27670 34586 34588 28
27671 34586 34589 28
27672 34586 34590 28
27673 34591 34592 28
27674 34591 34593 28
27675 34591 34594 28
27676 34591 34595 28
27677 34596 34597 28
27678 34596 34598 28
27679 34596 34599 28
27680 34596 34600 28
27681 34601 34602 28
27682 34601 34603 28
27683 34601 34604 28
27684 34601 34605 28
27685 34606 34607 28
27686 34606 34608 28
27687 34606 34609 28
27688 34606 34610 28
27689 34611 34612 28
27690 34611 34613 28
27691 34611 34614 28
27692 34611 34615 28
27693 34616 34617 28
27694 34616 34618 28
27695 34616 34619 28
27696 34616 34620 28
27697 34621 34622 28
27698 34621 34623 28
27699 34621 34624 28
27700 34621 34625 28
27701 34626 34627 28
27702 34626 34628 28
27703 34626 34629 28
27704 34626 34630 28
27705 34631 34632 28
27706 34631 34633 28
27707 34631 34634 28
27708 34631 34635 28
27709 34636 34637 28
27710 34636 34638 28
27711 34636 34639 28
27712 34636 34640 28
27713 34641 34642 28
27714 34641 34643 28
27715 34641 34644 28
27716 34641 34645 28
27717 34646 34647 28
27718 34646 34648 28
27719 34646 34649 28
27720 34646 34650 28
27721 34651 34652 28
27722 34651 34653 28
27723 34651 34654 28
27724 34651 34655 28
27725 34656 34657 28
27726 34656 34658 28
27727 34656 34659 28
27728 34656 34660 28
27729 34661 34662 28
27730 34661 34663 28
27731 34661 34664 28
27732 34661 34665 28
27733 34666 34667 28
27734 34666 34668 28
27735 34666 34669 28
27736 34666 34670 28
27737 34671 34672 28
27738 34671 34673 28
27739 34671 34674 28
27740 34671 34675 28
27741 34676 34677 28
27742 34676 34678 28
27743 34676 34679 28
27744 34676 34680 28
27745 34681 34682 28
27746 34681 34683 28
27747 34681 34684 28
27748 34681 34685 28
27749 34686 34687 28
27750 34686 34688 28
27751 34686 34689 28
27752 34686 34690 28
27753 34691 34692 28
27754 34691 34693 28
27755 34691 34694 28
27756 34691 34695 28
27757 34696 34697 28
27758 34696 34698 28
27759 34696 34699 28
27760 34696 34700 28
27761 34701 34702 28
27762 34701 34703 28
27763 34701 34704 28
27764 34701 34705 28
27765 34706 34707 28
27766 34706 34708 28
27767 34706 34709 28
27768 34706 34710 28
27769 34711 34712 28
27770 34711 34713 28
27771 34711 34714 28
27772 34711 34715 28
27773 34716 34717 28
27774 34716 34718 28
27775 34716 34719 28
27776 34716 34720 28
27777 34721 34722 28
27778 34721 34723 28
27779 34721 34724 28
27780 34721 34725 28
27781 34726 34727 28
27782 34726 34728 28
27783 34726 34729 28
27784 34726 34730 28
27785 34731 34732 28
27786 34731 34733 28
27787 34731 34734 28
27788 34731 34735 28
27789 34736 34737 28
27790 34736 34738 28
27791 34736 34739 28
27792 34736 34740 28
27793 34741 34742 28
27794 34741 34743 28
27795 34741 34744 28
27796 34741 34745 28
27797 34746 34747 28
27798 34746 34748 28
27799 34746 34749 28
27800 34746 34750 28
27801 34751 34752 28
27802 34751 34753 28
27803 34751 34754 28
27804 34751 34755 28
27805 34756 34757 28
27806 34756 34758 28
27807 34756 34759 28
27808 34756 34760 28
27809 34761 34762 28
27810 34761 34763 28
27811 34761 34764 28
27812 34761 34765 28
27813 34766 34767 28
27814 34766 34768 28
27815 34766 34769 28
27816 34766 34770 28
27817 34771 34772 28
27818 34771 34773 28
27819 34771 34774 28
27820 34771 34775 28
27821 34776 34777 28
27822 34776 34778 28
27823 34776 34779 28
27824 34776 34780 28
27825 34781 34782 28
27826 34781 34783 28
27827 34781 34784 28
27828 34781 34785 28
27829 34786 34787 28
27830 34786 34788 28
27831 34786 34789 28
27832 34786 34790 28
27833 34791 34792 28
27834 34791 34793 28
27835 34791 34794 28
27836 34791 34795 28
27837 34796 34797 28
27838 34796 34798 28
27839 34796 34799 28
27840 34796 34800 28
27841 34801 34802 28
27842 34801 34803 28
27843 34801 34804 28
27844 34801 34805 28
27845 34806 34807 28
27846 34806 34808 28
27847 34806 34809 28
27848 34806 34810 28
27849 34811 34812 28
27850 34811 34813 28
27851 34811 34814 28
27852 34811 34815 28
27853 34816 34817 28
27854 34816 34818 28
27855 34816 34819 28
27856 34816 34820 28
27857 34821 34822 28
27858 34821 34823 28
27859 34821 34824 28
27860 34821 34825 28
27861 34826 34827 28
27862 34826 34828 28
27863 34826 34829 28
27864 34826 34830 28
27865 34831 34832 28
27866 34831 34833 28
27867 34831 34834 28
27868 34831 34835 28
27869 34836 34837 28
27870 34836 34838 28
27871 34836 34839 28
27872 34836 34840 28
27873 34841 34842 28
27874 34841 34843 28
27875 34841 34844 28
27876 34841 34845 28
27877 34846 34847 28
27878 34846 34848 28
27879 34846 34849 28
27880 34846 34850 28
27881 34851 34852 28
27882 34851 34853 28
27883 34851 34854 28
27884 34851 34855 28
27885 34856 34857 28
27886 34856 34858 28
27887 34856 34859 28
27888 34856 34860 28
27889 34861 34862 28
27890 34861 34863 28
27891 34861 34864 28
27892 34861 34865 28
27893 34866 34867 28
27894 34866 34868 28
27895 34866 34869 28
27896 34866 34870 28
27897 34871 34872 28
27898 34871 34873 28
27899 34871 34874 28
27900 34871 34875 28
27901 34876 34877 28
27902 34876 34878 28
27903 34876 34879 28
27904 34876 34880 28
27905 34881 34882 28
27906 34881 34883 28
27907 34881 34884 28
27908 34881 34885 28
27909 34886 34887 28
27910 34886 34888 28
27911 34886 34889 28
27912 34886 34890 28
27913 34891 34892 28
27914 34891 34893 28
27915 34891 34894 28
27916 34891 34895 28
27917 34896 34897 28
27918 34896 34898 28
27919 34896 34899 28
27920 34896 34900 28
27921 34901 34902 28
27922 34901 34903 28
27923 34901 34904 28
27924 34901 34905 28
27925 34906 34907 28
27926 34906 34908 28
27927 34906 34909 28
27928 34906 34910 28
27929 34911 34912 28
27930 34911 34913 28
27931 34911 34914 28
27932 34911 34915 28
27933 34916 34917 28
27934 34916 34918 28
27935 34916 34919 28
27936 34916 34920 28
27937 34921 34922 28
27938 34921 34923 28
27939 34921 34924 28
27940 34921 34925 28
27941 34926 34927 28
27942 34926 34928 28
27943 34926 34929 28
27944 34926 34930 28
27945 34931 34932 28
27946 34931 34933 28
27947 34931 34934 28
27948 34931 34935 28
27949 34936 34937 28
27950 34936 34938 28
27951 34936 34939 28
27952 34936 34940 28
27953 34941 34942 28
27954 34941 34943 28
27955 34941 34944 28
27956 34941 34945 28
27957 34946 34947 28
27958 34946 34948 28
27959 34946 34949 28
27960 34946 34950 28
27961 34951 34952 28
27962 34951 34953 28
27963 34951 34954 28
27964 34951 34955 28
27965 34956 34957 28
27966 34956 34958 28
27967 34956 34959 28
27968 34956 34960 28
27969 34961 34962 28
27970 34961 34963 28
27971 34961 34964 28
27972 34961 34965 28
27973 34966 34967 28
27974 34966 34968 28
27975 34966 34969 28
27976 34966 34970 28
27977 34971 34972 28
27978 34971 34973 28
27979 34971 34974 28
27980 34971 34975 28
27981 34976 34977 28
27982 34976 34978 28
27983 34976 34979 28
27984 34976 34980 28
27985 34981 34982 28
27986 34981 34983 28
27987 34981 34984 28
27988 34981 34985 28
27989 34986 34987 28
27990 34986 34988 28
27991 34986 34989 28
27992 34986 34990 28
27993 34991 34992 28
27994 34991 34993 28
27995 34991 34994 28
27996 34991 34995 28
27997 34996 34997 28
27998 34996 34998 28
27999 34996 34999 28
28000 34996 35000 28
28001 35001 35002 28
28002 35001 35003 28
28003 35001 35004 28
28004 35001 35005 28
28005 35006 35007 28
28006 35006 35008 28
28007 35006 35009 28
28008 35006 35010 28
28009 35011 35012 28
28010 35011 35013 28
28011 35011 35014 28
28012 35011 35015 28
28013 35016 35017 28
28014 35016 35018 28
28015 35016 35019 28
28016 35016 35020 28
28017 35021 35022 28
28018 35021 35023 28
28019 35021 35024 28
28020 35021 35025 28
28021 35026 35027 28
28022 35026 35028 28
28023 35026 35029 28
28024 35026 35030 28
28025 35031 35032 28
28026 35031 35033 28
28027 35031 35034 28
28028 35031 35035 28
28029 35036 35037 28
28030 35036 35038 28
28031 35036 35039 28
28032 35036 35040 28
28033 35041 35042 28
28034 35041 35043 28
28035 35041 35044 28
28036 35041 35045 28
28037 35046 35047 28
28038 35046 35048 28
28039 35046 35049 28
28040 35046 35050 28
28041 35051 35052 28
28042 35051 35053 28
28043 35051 35054 28
28044 35051 35055 28
28045 35056 35057 28
28046 35056 35058 28
28047 35056 35059 28
28048 35056 35060 28
28049 35061 35062 28
28050 35061 35063 28
28051 35061 35064 28
28052 35061 35065 28
28053 35066 35067 28
28054 35066 35068 28
28055 35066 35069 28
28056 35066 35070 28
28057 35071 35072 28
28058 35071 35073 28
28059 35071 35074 28
28060 35071 35075 28
28061 35076 35077 28
28062 35076 35078 28
28063 35076 35079 28
28064 35076 35080 28
28065 35081 35082 28
28066 35081 35083 28
28067 35081 35084 28
28068 35081 35085 28
28069 35086 35087 28
28070 35086 35088 28
28071 35086 35089 28
28072 35086 35090 28
28073 35091 35092 28
28074 35091 35093 28
28075 35091 35094 28
28076 35091 35095 28
28077 35096 35097 28
28078 35096 35098 28
28079 35096 35099 28
28080 35096 35100 28
28081 35101 35102 28
28082 35101 35103 28
28083 35101 35104 28
28084 35101 35105 28
28085 35106 35107 28
28086 35106 35108 28
28087 35106 35109 28
28088 35106 35110 28
28089 35111 35112 28
28090 35111 35113 28
28091 35111 35114 28
28092 35111 35115 28
28093 35116 35117 28
28094 35116 35118 28
28095 35116 35119 28
28096 35116 35120 28
28097 35121 35122 28
28098 35121 35123 28
28099 35121 35124 28
28100 35121 35125 28
28101 35126 35127 28
28102 35126 35128 28
28103 35126 35129 28
28104 35126 35130 28
28105 35131 35132 28
28106 35131 35133 28
28107 35131 35134 28
28108 35131 35135 28
28109 35136 35137 28
28110 35136 35138 28
28111 35136 35139 28
28112 35136 35140 28
28113 35141 35142 28
28114 35141 35143 28
28115 35141 35144 28
28116 35141 35145 28
28117 35146 35147 28
28118 35146 35148 28
28119 35146 35149 28
28120 35146 35150 28
28121 35151 35152 28
28122 35151 35153 28
28123 35151 35154 28
28124 35151 35155 28
28125 35156 35157 28
28126 35156 35158 28
28127 35156 35159 28
28128 35156 35160 28
28129 35161 35162 28
28130 35161 35163 28
28131 35161 35164 28
28132 35161 35165 28
28133 35166 35167 28
28134 35166 35168 28
28135 35166 35169 28
28136 35166 35170 28
28137 35171 35172 28
28138 35171 35173 28
28139 35171 35174 28
28140 35171 35175 28
28141 35176 35177 28
28142 35176 35178 28
28143 35176 35179 28
28144 35176 35180 28
28145 35181 35182 28
28146 35181 35183 28
28147 35181 35184 28
28148 35181 35185 28
28149 35186 35187 28
28150 35186 35188 28
28151 35186 35189 28
28152 35186 35190 28
28153 35191 35192 28
28154 35191 35193 28
28155 35191 35194 28
28156 35191 35195 28
28157 35196 35197 28
28158 35196 35198 28
28159 35196 35199 28
28160 35196 35200 28
28161 35201 35202 28
28162 35201 35203 28
28163 35201 35204 28
28164 35201 35205 28
28165 35206 35207 28
28166 35206 35208 28
28167 35206 35209 28
28168 35206 35210 28
28169 35211 35212 28
28170 35211 35213 28
28171 35211 35214 28
28172 35211 35215 28
28173 35216 35217 28
28174 35216 35218 28
28175 35216 35219 28
28176 35216 35220 28
28177 35221 35222 28
28178 35221 35223 28
28179 35221 35224 28
28180 35221 35225 28
28181 35226 35227 28
28182 35226 35228 28
28183 35226 35229 28
28184 35226 35230 28
28185 35231 35232 28
28186 35231 35233 28
28187 35231 35234 28
28188 35231 35235 28
28189 35236 35237 28
28190 35236 35238 28
28191 35236 35239 28
28192 35236 35240 28
28193 35241 35242 28
28194 35241 35243 28
28195 35241 35244 28
28196 35241 35245 28
28197 35246 35247 28
28198 35246 35248 28
28199 35246 35249 28
28200 35246 35250 28
28201 35251 35252 28
28202 35251 35253 28
28203 35251 35254 28
28204 35251 35255 28
28205 35256 35257 28
28206 35256 35258 28
28207 35256 35259 28
28208 35256 35260 28
28209 35261 35262 28
28210 35261 35263 28
28211 35261 35264 28
28212 35261 35265 28
28213 35266 35267 28
28214 35266 35268 28
28215 35266 35269 28
28216 35266 35270 28
28217 35271 35272 28
28218 35271 35273 28
28219 35271 35274 28
28220 35271 35275 28
28221 35276 35277 28
28222 35276 35278 28
28223 35276 35279 28
28224 35276 35280 28
28225 35281 35282 28
28226 35281 35283 28
28227 35281 35284 28
28228 35281 35285 28
28229 35286 35287 28
28230 35286 35288 28
28231 35286 35289 28
28232 35286 35290 28
28233 35291 35292 28
28234 35291 35293 28
28235 35291 35294 28
28236 35291 35295 28
28237 35296 35297 28
28238 35296 35298 28
28239 35296 35299 28
28240 35296 35300 28
28241 35301 35302 28
28242 35301 35303 28
28243 35301 35304 28
28244 35301 35305 28
28245 35306 35307 28
28246 35306 35308 28
28247 35306 35309 28
28248 35306 35310 28
28249 35311 35312 28
28250 35311 35313 28
28251 35311 35314 28
28252 35311 35315 28
28253 35316 35317 28
28254 35316 35318 28
28255 35316 35319 28
28256 35316 35320 28
28257 35321 35322 28
28258 35321 35323 28
28259 35321 35324 28
28260 35321 35325 28
28261 35326 35327 28
28262 35326 35328 28
28263 35326 35329 28
28264 35326 35330 28
28265 35331 35332 28
28266 35331 35333 28
28267 35331 35334 28
28268 35331 35335 28
28269 35336 35337 28
28270 35336 35338 28
28271 35336 35339 28
28272 35336 35340 28
28273 35341 35342 28
28274 35341 35343 28
28275 35341 35344 28
28276 35341 35345 28
28277 35346 35347 28
28278 35346 35348 28
28279 35346 35349 28
28280 35346 35350 28
28281 35351 35352 28
28282 35351 35353 28
28283 35351 35354 28
28284 35351 35355 28
28285 35356 35357 28
28286 35356 35358 28
28287 35356 35359 28
28288 35356 35360 28
28289 35361 35362 28
28290 35361 35363 28
28291 35361 35364 28
28292 35361 35365 28
28293 35366 35367 28
28294 35366 35368 28
28295 35366 35369 28
28296 35366 35370 28
28297 35371 35372 28
28298 35371 35373 28
28299 35371 35374 28
28300 35371 35375 28
28301 35376 35377 28
28302 35376 35378 28
28303 35376 35379 28
28304 35376 35380 28
28305 35381 35382 28
28306 35381 35383 28
28307 35381 35384 28
28308 35381 35385 28
28309 35386 35387 28
28310 35386 35388 28
28311 35386 35389 28
28312 35386 35390 28
28313 35391 35392 28
28314 35391 35393 28
28315 35391 35394 28
28316 35391 35395 28
28317 35396 35397 28
28318 35396 35398 28
28319 35396 35399 28
28320 35396 35400 28
28321 35401 35402 28
28322 35401 35403 28
28323 35401 35404 28
28324 35401 35405 28
28325 35406 35407 28
28326 35406 35408 28
28327 35406 35409 28
28328 35406 35410 28
28329 35411 35412 28
28330 35411 35413 28
28331 35411 35414 28
28332 35411 35415 28
28333 35416 35417 28
28334 35416 35418 28
28335 35416 35419 28
28336 35416 35420 28
28337 35421 35422 28
28338 35421 35423 28
28339 35421 35424 28
28340 35421 35425 28
28341 35426 35427 28
28342 35426 35428 28
28343 35426 35429 28
28344 35426 35430 28
28345 35431 35432 28
28346 35431 35433 28
28347 35431 35434 28
28348 35431 35435 28
28349 35436 35437 28
28350 35436 35438 28
28351 35436 35439 28
28352 35436 35440 28
28353 35441 35442 28
28354 35441 35443 28
28355 35441 35444 28
28356 35441 35445 28
28357 35446 35447 28
28358 35446 35448 28
28359 35446 35449 28
28360 35446 35450 28
28361 35451 35452 28
28362 35451 35453 28
28363 35451 35454 28
28364 35451 35455 28
28365 35456 35457 28
28366 35456 35458 28
28367 35456 35459 28
28368 35456 35460 28
28369 35461 35462 28
28370 35461 35463 28
28371 35461 35464 28
28372 35461 35465 28
28373 35466 35467 28
28374 35466 35468 28
28375 35466 35469 28
28376 35466 35470 28
28377 35471 35472 28
28378 35471 35473 28
28379 35471 35474 28
28380 35471 35475 28
28381 35476 35477 28
28382 35476 35478 28
28383 35476 35479 28
28384 35476 35480 28
28385 35481 35482 28
28386 35481 35483 28
28387 35481 35484 28
28388 35481 35485 28
28389 35486 35487 28
28390 35486 35488 28
28391 35486 35489 28
28392 35486 35490 28
28393 35491 35492 28
28394 35491 35493 28
28395 35491 35494 28
28396 35491 35495 28
28397 35496 35497 28
28398 35496 35498 28
28399 35496 35499 28
28400 35496 35500 28
28401 35501 35502 28
28402 35501 35503 28
28403 35501 35504 28
28404 35501 35505 28
28405 35506 35507 28
28406 35506 35508 28
28407 35506 35509 28
28408 35506 35510 28
28409 35511 35512 28
28410 35511 35513 28
28411 35511 35514 28
28412 35511 35515 28
28413 35516 35517 28
28414 35516 35518 28
28415 35516 35519 28
28416 35516 35520 28
28417 35521 35522 28
28418 35521 35523 28
28419 35521 35524 28
28420 35521 35525 28
28421 35526 35527 28
28422 35526 35528 28
28423 35526 35529 28
28424 35526 35530 28
28425 35531 35532 28
28426 35531 35533 28
28427 35531 35534 28
28428 35531 35535 28
28429 35536 35537 28
28430 35536 35538 28
28431 35536 35539 28
28432 35536 35540 28
28433 35541 35542 28
28434 35541 35543 28
28435 35541 35544 28
28436 35541 35545 28
28437 35546 35547 28
28438 35546 35548 28
28439 35546 35549 28
28440 35546 35550 28
28441 35551 35552 28
28442 35551 35553 28
28443 35551 35554 28
28444 35551 35555 28
28445 35556 35557 28
28446 35556 35558 28
28447 35556 35559 28
28448 35556 35560 28
28449 35561 35562 28
28450 35561 35563 28
28451 35561 35564 28
28452 35561 35565 28
28453 35566 35567 28
28454 35566 35568 28
28455 35566 35569 28
28456 35566 35570 28
28457 35571 35572 28
28458 35571 35573 28
28459 35571 35574 28
28460 35571 35575 28
28461 35576 35577 28
28462 35576 35578 28
28463 35576 35579 28
28464 35576 35580 28
28465 35581 35582 28
28466 35581 35583 28
28467 35581 35584 28
28468 35581 35585 28
28469 35586 35587 28
28470 35586 35588 28
28471 35586 35589 28
28472 35586 35590 28
28473 35591 35592 28
28474 35591 35593 28
28475 35591 35594 28
28476 35591 35595 28
28477 35596 35597 28
28478 35596 35598 28
28479 35596 35599 28
28480 35596 35600 28
28481 35601 35602 28
28482 35601 35603 28
28483 35601 35604 28
28484 35601 35605 28
28485 35606 35607 28
28486 35606 35608 28
28487 35606 35609 28
28488 35606 35610 28
28489 35611 35612 28
28490 35611 35613 28
28491 35611 35614 28
28492 35611 35615 28
28493 35616 35617 28
28494 35616 35618 28
28495 35616 35619 28
28496 35616 35620 28
28497 35621 35622 28
28498 35621 35623 28
28499 35621 35624 28
28500 35621 35625 28
28501 35626 35627 28
28502 35626 35628 28
28503 35626 35629 28
28504 35626 35630 28
28505 35631 35632 28
28506 35631 35633 28
28507 35631 35634 28
28508 35631 35635 28
28509 35636 35637 28
28510 35636 35638 28
28511 35636 35639 28
28512 35636 35640 28
28513 35641 35642 28
28514 35641 35643 28
28515 35641 35644 28
28516 35641 35645 28
28517 35646 35647 28
28518 35646 35648 28
28519 35646 35649 28
28520 35646 35650 28
28521 35651 35652 28
28522 35651 35653 28
28523 35651 35654 28
28524 35651 35655 28
28525 35656 35657 28
28526 35656 35658 28
28527 35656 35659 28
28528 35656 35660 28
28529 35661 35662 28
28530 35661 35663 28
28531 35661 35664 28
28532 35661 35665 28
28533 35666 35667 28
28534 35666 35668 28
28535 35666 35669 28
28536 35666 35670 28
28537 35671 35672 28
28538 35671 35673 28
28539 35671 35674 28
28540 35671 35675 28
28541 35676 35677 28
28542 35676 35678 28
28543 35676 35679 28
28544 35676 35680 28
28545 35681 35682 28
28546 35681 35683 28
28547 35681 35684 28
28548 35681 35685 28
28549 35686 35687 28
28550 35686 35688 28
28551 35686 35689 28
28552 35686 35690 28
28553 35691 35692 28
28554 35691 35693 28
28555 35691 35694 28
28556 35691 35695 28
28557 35696 35697 28
28558 35696 35698 28
28559 35696 35699 28
28560 35696 35700 28
28561 35701 35702 28
28562 35701 35703 28
28563 35701 35704 28
28564 35701 35705 28
28565 35706 35707 28
28566 35706 35708 28
28567 35706 35709 28
28568 35706 35710 28
28569 35711 35712 28
28570 35711 35713 28
28571 35711 35714 28
28572 35711 35715 28
28573 35716 35717 28
28574 35716 35718 28
28575 35716 35719 28
28576 35716 35720 28
28577 35721 35722 28
28578 35721 35723 28
28579 35721 35724 28
28580 35721 35725 28
28581 35726 35727 28
28582 35726 35728 28
28583 35726 35729 28
28584 35726 35730 28
28585 35731 35732 28
28586 35731 35733 28
28587 35731 35734 28
28588 35731 35735 28
28589 35736 35737 28
28590 35736 35738 28
28591 35736 35739 28
28592 35736 35740 28
28593 35741 35742 28
28594 35741 35743 28
28595 35741 35744 28
28596 35741 35745 28
28597 35746 35747 28
28598 35746 35748 28
28599 35746 35749 28
28600 35746 35750 28
28601 35751 35752 28
28602 35751 35753 28
28603 35751 35754 28
28604 35751 35755 28
28605 35756 35757 28
28606 35756 35758 28
28607 35756 35759 28
28608 35756 35760 28
28609 35761 35762 28
28610 35761 35763 28
28611 35761 35764 28
28612 35761 35765 28
28613 35766 35767 28
28614 35766 35768 28
28615 35766 35769 28
28616 35766 35770 28
28617 35771 35772 28
28618 35771 35773 28
28619 35771 35774 28
28620 35771 35775 28
28621 35776 35777 28
28622 35776 35778 28
28623 35776 35779 28
28624 35776 35780 28
28625 35781 35782 28
28626 35781 35783 28
28627 35781 35784 28
28628 35781 35785 28
28629 35786 35787 28
28630 35786 35788 28
28631 35786 35789 28
28632 35786 35790 28
28633 35791 35792 28
28634 35791 35793 28
28635 35791 35794 28
28636 35791 35795 28
28637 35796 35797 28
28638 35796 35798 28
28639 35796 35799 28
28640 35796 35800 28
28641 35801 35802 28
28642 35801 35803 28
28643 35801 35804 28
28644 35801 35805 28
28645 35806 35807 28
28646 35806 35808 28
28647 35806 35809 28
28648 35806 35810 28
28649 35811 35812 28
28650 35811 35813 28
28651 35811 35814 28
28652 35811 35815 28
28653 35816 35817 28
28654 35816 35818 28
28655 35816 35819 28
28656 35816 35820 28
28657 35821 35822 28
28658 35821 35823 28
28659 35821 35824 28
28660 35821 35825 28
28661 35826 35827 28
28662 35826 35828 28
28663 35826 35829 28
28664 35826 35830 28
28665 35831 35832 28
28666 35831 35833 28
28667 35831 35834 28
28668 35831 35835 28
28669 35836 35837 28
28670 35836 35838 28
28671 35836 35839 28
28672 35836 35840 28
28673 35841 35842 28
28674 35841 35843 28
28675 35841 35844 28
28676 35841 35845 28
28677 35846 35847 28
28678 35846 35848 28
28679 35846 35849 28
28680 35846 35850 28
28681 35851 35852 28
28682 35851 35853 28
28683 35851 35854 28
28684 35851 35855 28
28685 35856 35857 28
28686 35856 35858 28
28687 35856 35859 28
28688 35856 35860 28
28689 35861 35862 28
28690 35861 35863 28
28691 35861 35864 28
28692 35861 35865 28
28693 35866 35867 28
28694 35866 35868 28
28695 35866 35869 28
28696 35866 35870 28
28697 35871 35872 28
28698 35871 35873 28
28699 35871 35874 28
28700 35871 35875 28
28701 35876 35877 28
28702 35876 35878 28
28703 35876 35879 28
28704 35876 35880 28
28705 35881 35882 28
28706 35881 35883 28
28707 35881 35884 28
28708 35881 35885 28
28709 35886 35887 28
28710 35886 35888 28
28711 35886 35889 28
28712 35886 35890 28
28713 35891 35892 28
28714 35891 35893 28
28715 35891 35894 28
28716 35891 35895 28
28717 35896 35897 28
28718 35896 35898 28
28719 35896 35899 28
28720 35896 35900 28
28721 35901 35902 28
28722 35901 35903 28
28723 35901 35904 28
28724 35901 35905 28
28725 35906 35907 28
28726 35906 35908 28
28727 35906 35909 28
28728 35906 35910 28
28729 35911 35912 28
28730 35911 35913 28
28731 35911 35914 28
28732 35911 35915 28
28733 35916 35917 28
28734 35916 35918 28
28735 35916 35919 28
28736 35916 35920 28
28737 35921 35922 28
28738 35921 35923 28
28739 35921 35924 28
28740 35921 35925 28
28741 35926 35927 28
28742 35926 35928 28
28743 35926 35929 28
28744 35926 35930 28
28745 35931 35932 28
28746 35931 35933 28
28747 35931 35934 28
28748 35931 35935 28
28749 35936 35937 28
28750 35936 35938 28
28751 35936 35939 28
28752 35936 35940 28
28753 35941 35942 28
28754 35941 35943 28
28755 35941 35944 28
28756 35941 35945 28
28757 35946 35947 28
28758 35946 35948 28
28759 35946 35949 28
28760 35946 35950 28
28761 35951 35952 28
28762 35951 35953 28
28763 35951 35954 28
28764 35951 35955 28
28765 35956 35957 28
28766 35956 35958 28
28767 35956 35959 28
28768 35956 35960 28
28769 35961 35962 28
28770 35961 35963 28
28771 35961 35964 28
28772 35961 35965 28
28773 35966 35967 28
28774 35966 35968 28
28775 35966 35969 28
28776 35966 35970 28
28777 35971 35972 28
28778 35971 35973 28
28779 35971 35974 28
28780 35971 35975 28
28781 35976 35977 28
28782 35976 35978 28
28783 35976 35979 28
28784 35976 35980 28
28785 35981 35982 28
28786 35981 35983 28
28787 35981 35984 28
28788 35981 35985 28
28789 35986 35987 28
28790 35986 35988 28
28791 35986 35989 28
28792 35986 35990 28
28793 35991 35992 28
28794 35991 35993 28
28795 35991 35994 28
28796 35991 35995 28
28797 35996 35997 28
28798 35996 35998 28
28799 35996 35999 28
28800 35996 36000 28
28801 36001 36002 28
28802 36001 36003 28
28803 36001 36004 28
28804 36001 36005 28
28805 36006 36007 28
28806 36006 36008 28
28807 36006 36009 28
28808 36006 36010 28
28809 36011 36012 28
28810 36011 36013 28
28811 36011 36014 28
28812 36011 36015 28
28813 36016 36017 28
28814 36016 36018 28
28815 36016 36019 28
28816 36016 36020 28
28817 36021 36022 28
28818 36021 36023 28
28819 36021 36024 28
28820 36021 36025 28
28821 36026 36027 28
28822 36026 36028 28
28823 36026 36029 28
28824 36026 36030 28
28825 36031 36032 28
28826 36031 36033 28
28827 36031 36034 28
28828 36031 36035 28
28829 36036 36037 28
28830 36036 36038 28
28831 36036 36039 28
28832 36036 36040 28
28833 36041 36042 28
28834 36041 36043 28
28835 36041 36044 28
28836 36041 36045 28
28837 36046 36047 28
28838 36046 36048 28
28839 36046 36049 28
28840 36046 36050 28
28841 36051 36052 28
28842 36051 36053 28
28843 36051 36054 28
28844 36051 36055 28
28845 36056 36057 28
28846 36056 36058 28
28847 36056 36059 28
28848 36056 36060 28
28849 36061 36062 28
28850 36061 36063 28
28851 36061 36064 28
28852 36061 36065 28
28853 36066 36067 28
28854 36066 36068 28
28855 36066 36069 28
28856 36066 36070 28
28857 36071 36072 28
28858 36071 36073 28
28859 36071 36074 28
28860 36071 36075 28
28861 36076 36077 28
28862 36076 36078 28
28863 36076 36079 28
28864 36076 36080 28
28865 36081 36082 28
28866 36081 36083 28
28867 36081 36084 28
28868 36081 36085 28
28869 36086 36087 28
28870 36086 36088 28
28871 36086 36089 28
28872 36086 36090 28
28873 36091 36092 28
28874 36091 36093 28
28875 36091 36094 28
28876 36091 36095 28
28877 36096 36097 28
28878 36096 36098 28
28879 36096 36099 28
28880 36096 36100 28
28881 36101 36102 28
28882 36101 36103 28
28883 36101 36104 28
28884 36101 36105 28
28885 36106 36107 28
28886 36106 36108 28
28887 36106 36109 28
28888 36106 36110 28
28889 36111 36112 28
28890 36111 36113 28
28891 36111 36114 28
28892 36111 36115 28
28893 36116 36117 28
28894 36116 36118 28
28895 36116 36119 28
28896 36116 36120 28
28897 36121 36122 28
28898 36121 36123 28
28899 36121 36124 28
28900 36121 36125 28
28901 36126 36127 28
28902 36126 36128 28
28903 36126 36129 28
28904 36126 36130 28
28905 36131 36132 28
28906 36131 36133 28
28907 36131 36134 28
28908 36131 36135 28
28909 36136 36137 28
28910 36136 36138 28
28911 36136 36139 28
28912 36136 36140 28
28913 36141 36142 28
28914 36141 36143 28
28915 36141 36144 28
28916 36141 36145 28
28917 36146 36147 28
28918 36146 36148 28
28919 36146 36149 28
28920 36146 36150 28
28921 36151 36152 28
28922 36151 36153 28
28923 36151 36154 28
28924 36151 36155 28
28925 36156 36157 28
28926 36156 36158 28
28927 36156 36159 28
28928 36156 36160 28
28929 36161 36162 28
28930 36161 36163 28
28931 36161 36164 28
28932 36161 36165 28
28933 36166 36167 28
28934 36166 36168 28
28935 36166 36169 28
28936 36166 36170 28
28937 36171 36172 28
28938 36171 36173 28
28939 36171 36174 28
28940 36171 36175 28
28941 36176 36177 28
28942 36176 36178 28
28943 36176 36179 28
28944 36176 36180 28
28945 36181 36182 28
28946 36181 36183 28
28947 36181 36184 28
28948 36181 36185 28
28949 36186 36187 28
28950 36186 36188 28
28951 36186 36189 28
28952 36186 36190 28
28953 36191 36192 28
28954 36191 36193 28
28955 36191 36194 28
28956 36191 36195 28
28957 36196 36197 28
28958 36196 36198 28
28959 36196 36199 28
28960 36196 36200 28
28961 36201 36202 28
28962 36201 36203 28
28963 36201 36204 28
28964 36201 36205 28
28965 36206 36207 28
28966 36206 36208 28
28967 36206 36209 28
28968 36206 36210 28
28969 36211 36212 28
28970 36211 36213 28
28971 36211 36214 28
28972 36211 36215 28
28973 36216 36217 28
28974 36216 36218 28
28975 36216 36219 28
28976 36216 36220 28
28977 36221 36222 28
28978 36221 36223 28
28979 36221 36224 28
28980 36221 36225 28
28981 36226 36227 28
28982 36226 36228 28
28983 36226 36229 28
28984 36226 36230 28
28985 36231 36232 28
28986 36231 36233 28
28987 36231 36234 28
28988 36231 36235 28
28989 36236 36237 28
28990 36236 36238 28
28991 36236 36239 28
28992 36236 36240 28
28993 36241 36242 28
28994 36241 36243 28
28995 36241 36244 28
28996 36241 36245 28
28997 36246 36247 28
28998 36246 36248 28
28999 36246 36249 28
29000 36246 36250 28
29001 36251 36252 28
29002 36251 36253 28
29003 36251 36254 28
29004 36251 36255 28
29005 36256 36257 28
29006 36256 36258 28
29007 36256 36259 28
29008 36256 36260 28
29009 36261 36262 28
29010 36261 36263 28
29011 36261 36264 28
29012 36261 36265 28
29013 36266 36267 28
29014 36266 36268 28
29015 36266 36269 28
29016 36266 36270 28
29017 36271 36272 28
29018 36271 36273 28
29019 36271 36274 28
29020 36271 36275 28
29021 36276 36277 28
29022 36276 36278 28
29023 36276 36279 28
29024 36276 36280 28
29025 36281 36282 28
29026 36281 36283 28
29027 36281 36284 28
29028 36281 36285 28
29029 36286 36287 28
29030 36286 36288 28
29031 36286 36289 28
29032 36286 36290 28
29033 36291 36292 28
29034 36291 36293 28
29035 36291 36294 28
29036 36291 36295 28
29037 36296 36297 28
29038 36296 36298 28
29039 36296 36299 28
29040 36296 36300 28
29041 36301 36302 28
29042 36301 36303 28
29043 36301 36304 28
29044 36301 36305 28
29045 36306 36307 28
29046 36306 36308 28
29047 36306 36309 28
29048 36306 36310 28
29049 36311 36312 28
29050 36311 36313 28
29051 36311 36314 28
29052 36311 36315 28
29053 36316 36317 28
29054 36316 36318 28
29055 36316 36319 28
29056 36316 36320 28
29057 36321 36322 28
29058 36321 36323 28
29059 36321 36324 28
29060 36321 36325 28
29061 36326 36327 28
29062 36326 36328 28
29063 36326 36329 28
29064 36326 36330 28
29065 36331 36332 28
29066 36331 36333 28
29067 36331 36334 28
29068 36331 36335 28
29069 36336 36337 28
29070 36336 36338 28
29071 36336 36339 28
29072 36336 36340 28
29073 36341 36342 28
29074 36341 36343 28
29075 36341 36344 28
29076 36341 36345 28
29077 36346 36347 28
29078 36346 36348 28
29079 36346 36349 28
29080 36346 36350 28
29081 36351 36352 28
29082 36351 36353 28
29083 36351 36354 28
29084 36351 36355 28
29085 36356 36357 28
29086 36356 36358 28
29087 36356 36359 28
29088 36356 36360 28
29089 36361 36362 28
29090 36361 36363 28
29091 36361 36364 28
29092 36361 36365 28
29093 36366 36367 28
29094 36366 36368 28
29095 36366 36369 28
29096 36366 36370 28
29097 36371 36372 28
29098 36371 36373 28
29099 36371 36374 28
29100 36371 36375 28
29101 36376 36377 28
29102 36376 36378 28
29103 36376 36379 28
29104 36376 36380 28
29105 36381 36382 28
29106 36381 36383 28
29107 36381 36384 28
29108 36381 36385 28
29109 36386 36387 28
29110 36386 36388 28
29111 36386 36389 28
29112 36386 36390 28
29113 36391 36392 28
29114 36391 36393 28
29115 36391 36394 28
29116 36391 36395 28
29117 36396 36397 28
29118 36396 36398 28
29119 36396 36399 28
29120 36396 36400 28
29121 36401 36402 28
29122 36401 36403 28
29123 36401 36404 28
29124 36401 36405 28
29125 36406 36407 28
29126 36406 36408 28
29127 36406 36409 28
29128 36406 36410 28
29129 36411 36412 28
29130 36411 36413 28
29131 36411 36414 28
29132 36411 36415 28
29133 36416 36417 28
29134 36416 36418 28
29135 36416 36419 28
29136 36416 36420 28
29137 36421 36422 28
29138 36421 36423 28
29139 36421 36424 28
29140 36421 36425 28
29141 36426 36427 28
29142 36426 36428 28
29143 36426 36429 28
29144 36426 36430 28
29145 36431 36432 28
29146 36431 36433 28
29147 36431 36434 28
29148 36431 36435 28
29149 36436 36437 28
29150 36436 36438 28
29151 36436 36439 28
29152 36436 36440 28
29153 36441 36442 28
29154 36441 36443 28
29155 36441 36444 28
29156 36441 36445 28
29157 36446 36447 28
29158 36446 36448 28
29159 36446 36449 28
29160 36446 36450 28
29161 36451 36452 28
29162 36451 36453 28
29163 36451 36454 28
29164 36451 36455 28
29165 36456 36457 28
29166 36456 36458 28
29167 36456 36459 28
29168 36456 36460 28
29169 36461 36462 28
29170 36461 36463 28
29171 36461 36464 28
29172 36461 36465 28
29173 36466 36467 28
29174 36466 36468 28
29175 36466 36469 28
29176 36466 36470 28
29177 36471 36472 28
29178 36471 36473 28
29179 36471 36474 28
29180 36471 36475 28
29181 36476 36477 28
29182 36476 36478 28
29183 36476 36479 28
29184 36476 36480 28
29185 36481 36482 28
29186 36481 36483 28
29187 36481 36484 28
29188 36481 36485 28
29189 36486 36487 28
29190 36486 36488 28
29191 36486 36489 28
29192 36486 36490 28
29193 36491 36492 28
29194 36491 36493 28
29195 36491 36494 28
29196 36491 36495 28
29197 36496 36497 28
29198 36496 36498 28
29199 36496 36499 28
29200 36496 36500 28
29201 36501 36502 28
29202 36501 36503 28
29203 36501 36504 28
29204 36501 36505 28
29205 36506 36507 28
29206 36506 36508 28
29207 36506 36509 28
29208 36506 36510 28
29209 36511 36512 28
29210 36511 36513 28
29211 36511 36514 28
29212 36511 36515 28
29213 36516 36517 28
29214 36516 36518 28
29215 36516 36519 28
29216 36516 36520 28
29217 36521 36522 28
29218 36521 36523 28
29219 36521 36524 28
29220 36521 36525 28
29221 36526 36527 28
29222 36526 36528 28
29223 36526 36529 28
29224 36526 36530 28
29225 36531 36532 28
29226 36531 36533 28
29227 36531 36534 28
29228 36531 36535 28
29229 36536 36537 28
29230 36536 36538 28
29231 36536 36539 28
29232 36536 36540 28
29233 36541 36542 28
29234 36541 36543 28
29235 36541 36544 28
29236 36541 36545 28
29237 36546 36547 28
29238 36546 36548 28
29239 36546 36549 28
29240 36546 36550 28
29241 36551 36552 28
29242 36551 36553 28
29243 36551 36554 28
29244 36551 36555 28
29245 36556 36557 28
29246 36556 36558 28
29247 36556 36559 28
29248 36556 36560 28
29249 36561 36562 28
29250 36561 36563 28
29251 36561 36564 28
29252 36561 36565 28
29253 36566 36567 28
29254 36566 36568 28
29255 36566 36569 28
29256 36566 36570 28
29257 36571 36572 28
29258 36571 36573 28
29259 36571 36574 28
29260 36571 36575 28
29261 36576 36577 28
29262 36576 36578 28
29263 36576 36579 28
29264 36576 36580 28
29265 36581 36582 28
29266 36581 36583 28
29267 36581 36584 28
29268 36581 36585 28
29269 36586 36587 28
29270 36586 36588 28
29271 36586 36589 28
29272 36586 36590 28
29273 36591 36592 28
29274 36591 36593 28
29275 36591 36594 28
29276 36591 36595 28
29277 36596 36597 28
29278 36596 36598 28
29279 36596 36599 28
29280 36596 36600 28
29281 36601 36602 28
29282 36601 36603 28
29283 36601 36604 28
29284 36601 36605 28
29285 36606 36607 28
29286 36606 36608 28
29287 36606 36609 28
29288 36606 36610 28
29289 36611 36612 28
29290 36611 36613 28
29291 36611 36614 28
29292 36611 36615 28
29293 36616 36617 28
29294 36616 36618 28
29295 36616 36619 28
29296 36616 36620 28
29297 36621 36622 28
29298 36621 36623 28
29299 36621 36624 28
29300 36621 36625 28
29301 36626 36627 28
29302 36626 36628 28
29303 36626 36629 28
29304 36626 36630 28
29305 36631 36632 28
29306 36631 36633 28
29307 36631 36634 28
29308 36631 36635 28
29309 36636 36637 28
29310 36636 36638 28
29311 36636 36639 28
29312 36636 36640 28
29313 36641 36642 28
29314 36641 36643 28
29315 36641 36644 28
29316 36641 36645 28
29317 36646 36647 28
29318 36646 36648 28
29319 36646 36649 28
29320 36646 36650 28
29321 36651 36652 28
29322 36651 36653 28
29323 36651 36654 28
29324 36651 36655 28
29325 36656 36657 28
29326 36656 36658 28
29327 36656 36659 28
29328 36656 36660 28
29329 36661 36662 28
29330 36661 36663 28
29331 36661 36664 28
29332 36661 36665 28
29333 36666 36667 28
29334 36666 36668 28
29335 36666 36669 28
29336 36666 36670 28
29337 36671 36672 28
29338 36671 36673 28
29339 36671 36674 28
29340 36671 36675 28
29341 36676 36677 28
29342 36676 36678 28
29343 36676 36679 28
29344 36676 36680 28
29345 36681 36682 28
29346 36681 36683 28
29347 36681 36684 28
29348 36681 36685 28
29349 36686 36687 28
29350 36686 36688 28
29351 36686 36689 28
29352 36686 36690 28
29353 36691 36692 28
29354 36691 36693 28
29355 36691 36694 28
29356 36691 36695 28
29357 36696 36697 28
29358 36696 36698 28
29359 36696 36699 28
29360 36696 36700 28
29361 36701 36702 28
29362 36701 36703 28
29363 36701 36704 28
29364 36701 36705 28
29365 36706 36707 28
29366 36706 36708 28
29367 36706 36709 28
29368 36706 36710 28
29369 36711 36712 28
29370 36711 36713 28
29371 36711 36714 28
29372 36711 36715 28
29373 36716 36717 28
29374 36716 36718 28
29375 36716 36719 28
29376 36716 36720 28
29377 36721 36722 28
29378 36721 36723 28
29379 36721 36724 28
29380 36721 36725 28
29381 36726 36727 28
29382 36726 36728 28
29383 36726 36729 28
29384 36726 36730 28
29385 36731 36732 28
29386 36731 36733 28
29387 36731 36734 28
29388 36731 36735 28
29389 36736 36737 28
29390 36736 36738 28
29391 36736 36739 28
29392 36736 36740 28
29393 36741 36742 28
29394 36741 36743 28
29395 36741 36744 28
29396 36741 36745 28
29397 36746 36747 28
29398 36746 36748 28
29399 36746 36749 28
29400 36746 36750 28
29401 36751 36752 28
29402 36751 36753 28
29403 36751 36754 28
29404 36751 36755 28
29405 36756 36757 28
29406 36756 36758 28
29407 36756 36759 28
29408 36756 36760 28
29409 36761 36762 28
29410 36761 36763 28
29411 36761 36764 28
29412 36761 36765 28
29413 36766 36767 28
29414 36766 36768 28
29415 36766 36769 28
29416 36766 36770 28
29417 36771 36772 28
29418 36771 36773 28
29419 36771 36774 28
29420 36771 36775 28
29421 36776 36777 28
29422 36776 36778 28
29423 36776 36779 28
29424 36776 36780 28
29425 36781 36782 28
29426 36781 36783 28
29427 36781 36784 28
29428 36781 36785 28
29429 36786 36787 28
29430 36786 36788 28
29431 36786 36789 28
29432 36786 36790 28
29433 36791 36792 28
29434 36791 36793 28
29435 36791 36794 28
29436 36791 36795 28
29437 36796 36797 28
29438 36796 36798 28
29439 36796 36799 28
29440 36796 36800 28
29441 36801 36802 28
29442 36801 36803 28
29443 36801 36804 28
29444 36801 36805 28
29445 36806 36807 28
29446 36806 36808 28
29447 36806 36809 28
29448 36806 36810 28
29449 36811 36812 28
29450 36811 36813 28
29451 36811 36814 28
29452 36811 36815 28
29453 36816 36817 28
29454 36816 36818 28
29455 36816 36819 28
29456 36816 36820 28
29457 36821 36822 28
29458 36821 36823 28
29459 36821 36824 28
29460 36821 36825 28
29461 36826 36827 28
29462 36826 36828 28
29463 36826 36829 28
29464 36826 36830 28
29465 36831 36832 28
29466 36831 36833 28
29467 36831 36834 28
29468 36831 36835 28
29469 36836 36837 28
29470 36836 36838 28
29471 36836 36839 28
29472 36836 36840 28
29473 36841 36842 28
29474 36841 36843 28
29475 36841 36844 28
29476 36841 36845 28
29477 36846 36847 28
29478 36846 36848 28
29479 36846 36849 28
29480 36846 36850 28
29481 36851 36852 28
29482 36851 36853 28
29483 36851 36854 28
29484 36851 36855 28
29485 36856 36857 28
29486 36856 36858 28
29487 36856 36859 28
29488 36856 36860 28
29489 36861 36862 28
29490 36861 36863 28
29491 36861 36864 28
29492 36861 36865 28
29493 36866 36867 28
29494 36866 36868 28
29495 36866 36869 28
29496 36866 36870 28
29497 36871 36872 28
29498 36871 36873 28
29499 36871 36874 28
29500 36871 36875 28
29501 36876 36877 28
29502 36876 36878 28
29503 36876 36879 28
29504 36876 36880 28
29505 36881 36882 28
29506 36881 36883 28
29507 36881 36884 28
29508 36881 36885 28
29509 36886 36887 28
29510 36886 36888 28
29511 36886 36889 28
29512 36886 36890 28
29513 36891 36892 28
29514 36891 36893 28
29515 36891 36894 28
29516 36891 36895 28
29517 36896 36897 28
29518 36896 36898 28
29519 36896 36899 28
29520 36896 36900 28
29521 36901 36902 28
29522 36901 36903 28
29523 36901 36904 28
29524 36901 36905 28
29525 36906 36907 28
29526 36906 36908 28
29527 36906 36909 28
29528 36906 36910 28
29529 36911 36912 28
29530 36911 36913 28
29531 36911 36914 28
29532 36911 36915 28
29533 36916 36917 28
29534 36916 36918 28
29535 36916 36919 28
29536 36916 36920 28
29537 36921 36922 28
29538 36921 36923 28
29539 36921 36924 28
29540 36921 36925 28
29541 36926 36927 28
29542 36926 36928 28
29543 36926 36929 28
29544 36926 36930 28
29545 36931 36932 28
29546 36931 36933 28
29547 36931 36934 28
29548 36931 36935 28
29549 36936 36937 28
29550 36936 36938 28
29551 36936 36939 28
29552 36936 36940 28
29553 36941 36942 28
29554 36941 36943 28
29555 36941 36944 28
29556 36941 36945 28
29557 36946 36947 28
29558 36946 36948 28
29559 36946 36949 28
29560 36946 36950 28
29561 36951 36952 28
29562 36951 36953 28
29563 36951 36954 28
29564 36951 36955 28
29565 36956 36957 28
29566 36956 36958 28
29567 36956 36959 28
29568 36956 36960 28
29569 36961 36962 28
29570 36961 36963 28
29571 36961 36964 28
29572 36961 36965 28
29573 36966 36967 28
29574 36966 36968 28
29575 36966 36969 28
29576 36966 36970 28
29577 36971 36972 28
29578 36971 36973 28
29579 36971 36974 28
29580 36971 36975 28
29581 36976 36977 28
29582 36976 36978 28
29583 36976 36979 28
29584 36976 36980 28
29585 36981 36982 28
29586 36981 36983 28
29587 36981 36984 28
29588 36981 36985 28
29589 36986 36987 28
29590 36986 36988 28
29591 36986 36989 28
29592 36986 36990 28
29593 36991 36992 28
29594 36991 36993 28
29595 36991 36994 28
29596 36991 36995 28
29597 36996 36997 28
29598 36996 36998 28
29599 36996 36999 28
29600 36996 37000 28
29601 37001 37002 28
29602 37001 37003 28
29603 37001 37004 28
29604 37001 37005 28
29605 37006 37007 28
29606 37006 37008 28
29607 37006 37009 28
29608 37006 37010 28
29609 37011 37012 28
29610 37011 37013 28
29611 37011 37014 28
29612 37011 37015 28
29613 37016 37017 28
29614 37016 37018 28
29615 37016 37019 28
29616 37016 37020 28
29617 37021 37022 28
29618 37021 37023 28
29619 37021 37024 28
29620 37021 37025 28
29621 37026 37027 28
29622 37026 37028 28
29623 37026 37029 28
29624 37026 37030 28
29625 37031 37032 28
29626 37031 37033 28
29627 37031 37034 28
29628 37031 37035 28
29629 37036 37037 28
29630 37036 37038 28
29631 37036 37039 28
29632 37036 37040 28
29633 37041 37042 28
29634 37041 37043 28
29635 37041 37044 28
29636 37041 37045 28
29637 37046 37047 28
29638 37046 37048 28
29639 37046 37049 28
29640 37046 37050 28
29641 37051 37052 28
29642 37051 37053 28
29643 37051 37054 28
29644 37051 37055 28
29645 37056 37057 28
29646 37056 37058 28
29647 37056 37059 28
29648 37056 37060 28
29649 37061 37062 28
29650 37061 37063 28
29651 37061 37064 28
29652 37061 37065 28
29653 37066 37067 28
29654 37066 37068 28
29655 37066 37069 28
29656 37066 37070 28
29657 37071 37072 28
29658 37071 37073 28
29659 37071 37074 28
29660 37071 37075 28
29661 37076 37077 28
29662 37076 37078 28
29663 37076 37079 28
29664 37076 37080 28
29665 37081 37082 28
29666 37081 37083 28
29667 37081 37084 28
29668 37081 37085 28
29669 37086 37087 28
29670 37086 37088 28
29671 37086 37089 28
29672 37086 37090 28
29673 37091 37092 28
29674 37091 37093 28
29675 37091 37094 28
29676 37091 37095 28
29677 37096 37097 28
29678 37096 37098 28
29679 37096 37099 28
29680 37096 37100 28
29681 37101 37102 28
29682 37101 37103 28
29683 37101 37104 28
29684 37101 37105 28
29685 37106 37107 28
29686 37106 37108 28
29687 37106 37109 28
29688 37106 37110 28
29689 37111 37112 28
29690 37111 37113 28
29691 37111 37114 28
29692 37111 37115 28
29693 37116 37117 28
29694 37116 37118 28
29695 37116 37119 28
29696 37116 37120 28
29697 37121 37122 28
29698 37121 37123 28
29699 37121 37124 28
29700 37121 37125 28
29701 37126 37127 28
29702 37126 37128 28
29703 37126 37129 28
29704 37126 37130 28
29705 37131 37132 28
29706 37131 37133 28
29707 37131 37134 28
29708 37131 37135 28
29709 37136 37137 28
29710 37136 37138 28
29711 37136 37139 28
29712 37136 37140 28
29713 37141 37142 28
29714 37141 37143 28
29715 37141 37144 28
29716 37141 37145 28
29717 37146 37147 28
29718 37146 37148 28
29719 37146 37149 28
29720 37146 37150 28
29721 37151 37152 28
29722 37151 37153 28
29723 37151 37154 28
29724 37151 37155 28
29725 37156 37157 28
29726 37156 37158 28
29727 37156 37159 28
29728 37156 37160 28
29729 37161 37162 28
29730 37161 37163 28
29731 37161 37164 28
29732 37161 37165 28
29733 37166 37167 28
29734 37166 37168 28
29735 37166 37169 28
29736 37166 37170 28
29737 37171 37172 28
29738 37171 37173 28
29739 37171 37174 28
29740 37171 37175 28
29741 37176 37177 28
29742 37176 37178 28
29743 37176 37179 28
29744 37176 37180 28
29745 37181 37182 28
29746 37181 37183 28
29747 37181 37184 28
29748 37181 37185 28
29749 37186 37187 28
29750 37186 37188 28
29751 37186 37189 28
29752 37186 37190 28
29753 37191 37192 28
29754 37191 37193 28
29755 37191 37194 28
29756 37191 37195 28
29757 37196 37197 28
29758 37196 37198 28
29759 37196 37199 28
29760 37196 37200 28
29761 37201 37202 28
29762 37201 37203 28
29763 37201 37204 28
29764 37201 37205 28
29765 37206 37207 28
29766 37206 37208 28
29767 37206 37209 28
29768 37206 37210 28
29769 37211 37212 28
29770 37211 37213 28
29771 37211 37214 28
29772 37211 37215 28
29773 37216 37217 28
29774 37216 37218 28
29775 37216 37219 28
29776 37216 37220 28
29777 37221 37222 28
29778 37221 37223 28
29779 37221 37224 28
29780 37221 37225 28
29781 37226 37227 28
29782 37226 37228 28
29783 37226 37229 28
29784 37226 37230 28
29785 37231 37232 28
29786 37231 37233 28
29787 37231 37234 28
29788 37231 37235 28
29789 37236 37237 28
29790 37236 37238 28
29791 37236 37239 28
29792 37236 37240 28
29793 37241 37242 28
29794 37241 37243 28
29795 37241 37244 28
29796 37241 37245 28
29797 37246 37247 28
29798 37246 37248 28
29799 37246 37249 28
29800 37246 37250 28
29801 37251 37252 28
29802 37251 37253 28
29803 37251 37254 28
29804 37251 37255 28
29805 37256 37257 28
29806 37256 37258 28
29807 37256 37259 28
29808 37256 37260 28
29809 37261 37262 28
29810 37261 37263 28
29811 37261 37264 28
29812 37261 37265 28
29813 37266 37267 28
29814 37266 37268 28
29815 37266 37269 28
29816 37266 37270 28
29817 37271 37272 28
29818 37271 37273 28
29819 37271 37274 28
29820 37271 37275 28
29821 37276 37277 28
29822 37276 37278 28
29823 37276 37279 28
29824 37276 37280 28
29825 37281 37282 28
29826 37281 37283 28
29827 37281 37284 28
29828 37281 37285 28
29829 37286 37287 28
29830 37286 37288 28
29831 37286 37289 28
29832 37286 37290 28
29833 37291 37292 28
29834 37291 37293 28
29835 37291 37294 28
29836 37291 37295 28
29837 37296 37297 28
29838 37296 37298 28
29839 37296 37299 28
29840 37296 37300 28
29841 37301 37302 28
29842 37301 37303 28
29843 37301 37304 28
29844 37301 37305 28
29845 37306 37307 28
29846 37306 37308 28
29847 37306 37309 28
29848 37306 37310 28
29849 37311 37312 28
29850 37311 37313 28
29851 37311 37314 28
29852 37311 37315 28
29853 37316 37317 28
29854 37316 37318 28
29855 37316 37319 28
29856 37316 37320 28
29857 37321 37322 28
29858 37321 37323 28
29859 37321 37324 28
29860 37321 37325 28
29861 37326 37327 28
29862 37326 37328 28
29863 37326 37329 28
29864 37326 37330 28
29865 37331 37332 28
29866 37331 37333 28
29867 37331 37334 28
29868 37331 37335 28
29869 37336 37337 28
29870 37336 37338 28
29871 37336 37339 28
29872 37336 37340 28
29873 37341 37342 28
29874 37341 37343 28
29875 37341 37344 28
29876 37341 37345 28
29877 37346 37347 28
29878 37346 37348 28
29879 37346 37349 28
29880 37346 37350 28
29881 37351 37352 28
29882 37351 37353 28
29883 37351 37354 28
29884 37351 37355 28
29885 37356 37357 28
29886 37356 37358 28
29887 37356 37359 28
29888 37356 37360 28
29889 37361 37362 28
29890 37361 37363 28
29891 37361 37364 28
29892 37361 37365 28
29893 37366 37367 28
29894 37366 37368 28
29895 37366 37369 28
29896 37366 37370 28
29897 37371 37372 28
29898 37371 37373 28
29899 37371 37374 28
29900 37371 37375 28
29901 37376 37377 28
29902 37376 37378 28
29903 37376 37379 28
29904 37376 37380 28
29905 37381 37382 28
29906 37381 37383 28
29907 37381 37384 28
29908 37381 37385 28
29909 37386 37387 28
29910 37386 37388 28
29911 37386 37389 28
29912 37386 37390 28
29913 37391 37392 28
29914 37391 37393 28
29915 37391 37394 28
29916 37391 37395 28
29917 37396 37397 28
29918 37396 37398 28
29919 37396 37399 28
29920 37396 37400 28
29921 37401 37402 28
29922 37401 37403 28
29923 37401 37404 28
29924 37401 37405 28
29925 37406 37407 28
29926 37406 37408 28
29927 37406 37409 28
29928 37406 37410 28
29929 37411 37412 28
29930 37411 37413 28
29931 37411 37414 28
29932 37411 37415 28
29933 37416 37417 28
29934 37416 37418 28
29935 37416 37419 28
29936 37416 37420 28
29937 37421 37422 28
29938 37421 37423 28
29939 37421 37424 28
29940 37421 37425 28
29941 37426 37427 28
29942 37426 37428 28
29943 37426 37429 28
29944 37426 37430 28
29945 37431 37432 28
29946 37431 37433 28
29947 37431 37434 28
29948 37431 37435 28
29949 37436 37437 28
29950 37436 37438 28
29951 37436 37439 28
29952 37436 37440 28
29953 37441 37442 28
29954 37441 37443 28
29955 37441 37444 28
29956 37441 37445 28
29957 37446 37447 28
29958 37446 37448 28
29959 37446 37449 28
29960 37446 37450 28
29961 37451 37452 28
29962 37451 37453 28
29963 37451 37454 28
29964 37451 37455 28
29965 37456 37457 28
29966 37456 37458 28
29967 37456 37459 28
29968 37456 37460 28
29969 37461 37462 28
29970 37461 37463 28
29971 37461 37464 28
29972 37461 37465 28
29973 37466 37467 28
29974 37466 37468 28
29975 37466 37469 28
29976 37466 37470 28
29977 37471 37472 28
29978 37471 37473 28
29979 37471 37474 28
29980 37471 37475 28
29981 37476 37477 28
29982 37476 37478 28
29983 37476 37479 28
29984 37476 37480 28
29985 37481 37482 28
29986 37481 37483 28
29987 37481 37484 28
29988 37481 37485 28
29989 37486 37487 28
29990 37486 37488 28
29991 37486 37489 28
29992 37486 37490 28
29993 37491 37492 28
29994 37491 37493 28
29995 37491 37494 28
29996 37491 37495 28
29997 37496 37497 28
29998 37496 37498 28
29999 37496 37499 28
30000 37496 37500 28
@<TRIPOS>CRYSIN
116.75987624645231 116.75987624645231 116.75987624645231 90 90 90 1 1
